Four-POPC bilayer teaching patch
     RDKit          3D

536532  0  0  0  0  0  0  0  0999 V2000
   -4.6386   -2.1241    4.6634 C   0  0  0  0  0  0  0  0  0  0  0  0
  -27.0149   -1.6629    4.6634 C   0  0  0  0  0  0  0  0  0  0  0  0
  -15.9856   21.9844    4.2865 C   0  0  0  0  0  0  0  0  0  0  0  0
  -17.1246   21.7006    6.4600 C   0  0  0  0  0  0  0  0  0  0  0  0
  -14.8386   20.8016    6.1442 C   0  0  0  0  0  0  0  0  0  0  0  0
   -5.0708   -0.6810    4.4581 C   0  0  0  0  0  0  0  0  0  0  0  0
  -26.8237   -0.1756    4.9148 C   0  0  0  0  0  0  0  0  0  0  0  0
   -6.0913   -0.5575    3.3269 C   0  0  0  0  0  0  0  0  0  0  0  0
  -25.7819    0.4226    3.9697 C   0  0  0  0  0  0  0  0  0  0  0  0
   -6.5234    0.8956    3.1236 C   0  0  0  0  0  0  0  0  0  0  0  0
  -25.5918    1.9185    4.2262 C   0  0  0  0  0  0  0  0  0  0  0  0
   -7.5450    1.0193    1.9920 C   0  0  0  0  0  0  0  0  0  0  0  0
  -24.5489    2.5170    3.2809 C   0  0  0  0  0  0  0  0  0  0  0  0
   -7.9724    2.4731    1.7849 C   0  0  0  0  0  0  0  0  0  0  0  0
  -24.3579    4.0127    3.5384 C   0  0  0  0  0  0  0  0  0  0  0  0
   -8.9947    2.5980    0.6530 C   0  0  0  0  0  0  0  0  0  0  0  0
  -23.3140    4.6107    2.5938 C   0  0  0  0  0  0  0  0  0  0  0  0
   -9.3602    4.0633    0.3965 C   0  0  0  0  0  0  0  0  0  0  0  0
  -23.1201    6.1056    2.8533 C   0  0  0  0  0  0  0  0  0  0  0  0
  -10.3085    4.2086   -0.7612 C   0  0  0  0  0  0  0  0  0  0  0  0
  -11.1975    5.2022   -0.9219 C   0  0  0  0  0  0  0  0  0  0  0  0
  -22.0737    6.7024    1.9108 C   0  0  0  0  0  0  0  0  0  0  0  0
  -11.3659    6.3769    0.0000 C   0  0  0  0  0  0  0  0  0  0  0  0
  -21.8751    8.1960    2.1735 C   0  0  0  0  0  0  0  0  0  0  0  0
  -11.9404    7.5959   -0.7233 C   0  0  0  0  0  0  0  0  0  0  0  0
  -20.8248    8.7906    1.2340 C   0  0  0  0  0  0  0  0  0  0  0  0
  -12.1372    8.7597    0.2486 C   0  0  0  0  0  0  0  0  0  0  0  0
  -20.6195   10.2827    1.5007 C   0  0  0  0  0  0  0  0  0  0  0  0
  -12.8225    9.9417   -0.4334 C   0  0  0  0  0  0  0  0  0  0  0  0
  -19.5642   10.8741    0.5651 C   0  0  0  0  0  0  0  0  0  0  0  0
  -12.9885   11.1139    0.5332 C   0  0  0  0  0  0  0  0  0  0  0  0
  -19.3514   12.3639    0.8356 C   0  0  0  0  0  0  0  0  0  0  0  0
  -13.7160   12.2734   -0.1411 C   0  0  0  0  0  0  0  0  0  0  0  0
  -18.2932   12.9500   -0.0970 C   0  0  0  0  0  0  0  0  0  0  0  0
  -13.8513   13.4711    0.7961 C   0  0  0  0  0  0  0  0  0  0  0  0
  -16.8223   19.6976    5.0239 C   0  0  0  0  0  0  0  0  0  0  0  0
  -16.0304   18.8439    4.0289 C   0  0  0  0  0  0  0  0  0  0  0  0
  -16.7745   16.2675   -0.5499 C   0  0  0  0  0  0  0  0  0  0  0  0
  -14.9891   17.8375    0.3309 C   0  0  0  0  0  0  0  0  0  0  0  0
  -15.8411   16.6026    0.6239 C   0  0  2  0  0  0  0  0  0  0  0  0
  -18.0586   14.4192    0.1657 C   0  0  0  0  0  0  0  0  0  0  0  0
  -14.5918   14.5932    0.1207 C   0  0  0  0  0  0  0  0  0  0  0  0
  -16.1850   21.0341    5.4727 N   0  0  0  0  0  0  0  0  0  0  0  0
  -18.7078   15.1162    0.9324 O   0  0  0  0  0  0  0  0  0  0  0  0
  -14.8225   14.6454   -1.0799 O   0  0  0  0  0  0  0  0  0  0  0  0
  -13.5417   19.9440    3.2256 O   0  0  0  0  0  0  0  0  0  0  0  0
  -14.7020   20.6988    0.9971 O   0  0  0  0  0  0  0  0  0  0  0  0
  -16.9919   14.8425   -0.5672 O   0  0  0  0  0  0  0  0  0  0  0  0
  -15.9767   19.4866    2.7729 O   0  0  0  0  0  0  0  0  0  0  0  0
  -14.2853   18.2117    1.5075 O   0  0  0  0  0  0  0  0  0  0  0  0
  -14.9955   15.4980    1.0480 O   0  0  0  0  0  0  0  0  0  0  0  0
  -14.5112   19.6971    2.0988 P   0  0  2  0  0  5  0  0  0  0  0  0
   -4.1745   -2.5273    3.7576 H   0  0  0  0  0  0  0  0  0  0  0  0
   -5.4937   -2.7566    4.9226 H   0  0  0  0  0  0  0  0  0  0  0  0
   -3.9090   -2.1891    5.4766 H   0  0  0  0  0  0  0  0  0  0  0  0
  -27.7638   -2.0700    5.3499 H   0  0  0  0  0  0  0  0  0  0  0  0
  -26.0796   -2.2103    4.8174 H   0  0  0  0  0  0  0  0  0  0  0  0
  -27.3566   -1.8468    3.6397 H   0  0  0  0  0  0  0  0  0  0  0  0
  -16.8855   21.9621    3.6661 H   0  0  0  0  0  0  0  0  0  0  0  0
  -15.0999   21.7017    3.7291 H   0  0  0  0  0  0  0  0  0  0  0  0
  -15.8315   22.9934    4.6830 H   0  0  0  0  0  0  0  0  0  0  0  0
  -17.2787   21.0244    7.3065 H   0  0  0  0  0  0  0  0  0  0  0  0
  -18.0742   21.9031    5.9553 H   0  0  0  0  0  0  0  0  0  0  0  0
  -16.6710   22.6350    6.8051 H   0  0  0  0  0  0  0  0  0  0  0  0
  -14.4471   21.7692    6.4730 H   0  0  0  0  0  0  0  0  0  0  0  0
  -14.9973   20.1470    7.0066 H   0  0  0  0  0  0  0  0  0  0  0  0
  -14.1456   20.3386    5.4486 H   0  0  0  0  0  0  0  0  0  0  0  0
   -5.5007   -0.2982    5.3910 H   0  0  0  0  0  0  0  0  0  0  0  0
   -4.1890   -0.0701    4.2324 H   0  0  0  0  0  0  0  0  0  0  0  0
  -27.7833    0.3374    4.7843 H   0  0  0  0  0  0  0  0  0  0  0  0
  -26.5134   -0.0240    5.9552 H   0  0  0  0  0  0  0  0  0  0  0  0
   -5.6578   -0.9455    2.3971 H   0  0  0  0  0  0  0  0  0  0  0  0
   -6.9695   -1.1734    3.5555 H   0  0  0  0  0  0  0  0  0  0  0  0
  -26.0952    0.2648    2.9305 H   0  0  0  0  0  0  0  0  0  0  0  0
  -24.8250   -0.0973    4.1011 H   0  0  0  0  0  0  0  0  0  0  0  0
   -6.9565    1.2838    4.0534 H   0  0  0  0  0  0  0  0  0  0  0  0
   -5.6449    1.5111    2.8943 H   0  0  0  0  0  0  0  0  0  0  0  0
  -25.2789    2.0759    5.2656 H   0  0  0  0  0  0  0  0  0  0  0  0
  -26.5486    2.4383    4.0942 H   0  0  0  0  0  0  0  0  0  0  0  0
   -8.4253    0.4071    2.2228 H   0  0  0  0  0  0  0  0  0  0  0  0
   -7.1130    0.6273    1.0631 H   0  0  0  0  0  0  0  0  0  0  0  0
  -24.8621    2.3603    2.2416 H   0  0  0  0  0  0  0  0  0  0  0  0
  -23.5925    1.9966    3.4123 H   0  0  0  0  0  0  0  0  0  0  0  0
   -8.4027    2.8685    2.7130 H   0  0  0  0  0  0  0  0  0  0  0  0
   -7.0901    3.0819    1.5525 H   0  0  0  0  0  0  0  0  0  0  0  0
  -25.3142    4.5334    3.4061 H   0  0  0  0  0  0  0  0  0  0  0  0
  -24.0453    4.1693    4.5780 H   0  0  0  0  0  0  0  0  0  0  0  0
   -9.8973    2.0276    0.9055 H   0  0  0  0  0  0  0  0  0  0  0  0
   -8.5794    2.1545   -0.2610 H   0  0  0  0  0  0  0  0  0  0  0  0
  -23.6276    4.4560    1.5543 H   0  0  0  0  0  0  0  0  0  0  0  0
  -22.3585    4.0883    2.7245 H   0  0  0  0  0  0  0  0  0  0  0  0
   -8.4464    4.6227    0.1627 H   0  0  0  0  0  0  0  0  0  0  0  0
   -9.7900    4.4909    1.3095 H   0  0  0  0  0  0  0  0  0  0  0  0
  -22.8083    6.2602    3.8935 H   0  0  0  0  0  0  0  0  0  0  0  0
  -24.0751    6.6287    2.7208 H   0  0  0  0  0  0  0  0  0  0  0  0
  -10.2669    3.4369   -1.5288 H   0  0  0  0  0  0  0  0  0  0  0  0
  -11.8492    5.1643   -1.7937 H   0  0  0  0  0  0  0  0  0  0  0  0
  -21.1198    6.1766    2.0412 H   0  0  0  0  0  0  0  0  0  0  0  0
  -22.3870    6.5507    0.8706 H   0  0  0  0  0  0  0  0  0  0  0  0
  -12.0506    6.0847    0.8056 H   0  0  0  0  0  0  0  0  0  0  0  0
  -10.4083    6.6500    0.4580 H   0  0  0  0  0  0  0  0  0  0  0  0
  -21.5643    8.3476    3.2145 H   0  0  0  0  0  0  0  0  0  0  0  0
  -22.8277    8.7227    2.0402 H   0  0  0  0  0  0  0  0  0  0  0  0
  -12.9030    7.3346   -1.1810 H   0  0  0  0  0  0  0  0  0  0  0  0
  -11.2697    7.9016   -1.5360 H   0  0  0  0  0  0  0  0  0  0  0  0
  -19.8735    8.2604    1.3643 H   0  0  0  0  0  0  0  0  0  0  0  0
  -21.1372    8.6430    0.1930 H   0  0  0  0  0  0  0  0  0  0  0  0
  -11.1644    9.0725    0.6472 H   0  0  0  0  0  0  0  0  0  0  0  0
  -12.7448    8.4311    1.1009 H   0  0  0  0  0  0  0  0  0  0  0  0
  -21.5693   10.8144    1.3665 H   0  0  0  0  0  0  0  0  0  0  0  0
  -20.3106   10.4303    2.5428 H   0  0  0  0  0  0  0  0  0  0  0  0
  -12.2320   10.2606   -1.3008 H   0  0  0  0  0  0  0  0  0  0  0  0
  -13.8053    9.6298   -0.8079 H   0  0  0  0  0  0  0  0  0  0  0  0
  -18.6161   10.3384    0.6961 H   0  0  0  0  0  0  0  0  0  0  0  0
  -19.8751   10.7308   -0.4770 H   0  0  0  0  0  0  0  0  0  0  0  0
  -13.5522   10.7901    1.4164 H   0  0  0  0  0  0  0  0  0  0  0  0
  -12.0028   11.4463    0.8810 H   0  0  0  0  0  0  0  0  0  0  0  0
  -20.2985   12.9024    0.7050 H   0  0  0  0  0  0  0  0  0  0  0  0
  -19.0460   12.5117    1.8790 H   0  0  0  0  0  0  0  0  0  0  0  0
  -14.7089   11.9416   -0.4657 H   0  0  0  0  0  0  0  0  0  0  0  0
  -13.1716   12.5720   -1.0459 H   0  0  0  0  0  0  0  0  0  0  0  0
  -18.6132   12.8364   -1.1369 H   0  0  0  0  0  0  0  0  0  0  0  0
  -17.3452   12.4194    0.0458 H   0  0  0  0  0  0  0  0  0  0  0  0
  -14.4087   13.1711    1.6907 H   0  0  0  0  0  0  0  0  0  0  0  0
  -12.8645   13.8396    1.0950 H   0  0  0  0  0  0  0  0  0  0  0  0
  -16.9931   19.1189    5.9394 H   0  0  0  0  0  0  0  0  0  0  0  0
  -17.7960   19.9600    4.5923 H   0  0  0  0  0  0  0  0  0  0  0  0
  -15.0481   18.5673    4.4197 H   0  0  0  0  0  0  0  0  0  0  0  0
  -16.5714   17.9033    3.8780 H   0  0  0  0  0  0  0  0  0  0  0  0
  -16.3424   16.6024   -1.5016 H   0  0  0  0  0  0  0  0  0  0  0  0
  -17.7351   16.7794   -0.4200 H   0  0  0  0  0  0  0  0  0  0  0  0
  -15.6238   18.6525   -0.0305 H   0  0  0  0  0  0  0  0  0  0  0  0
  -14.2393   17.6165   -0.4355 H   0  0  0  0  0  0  0  0  0  0  0  0
  -16.4673   16.8011    1.5018 H   0  0  0  0  0  0  0  0  0  0  0  0
   27.3614   -2.1241    4.6634 C   0  0  0  0  0  0  0  0  0  0  0  0
    4.9851   -1.6629    4.6634 C   0  0  0  0  0  0  0  0  0  0  0  0
   16.0144   21.9844    4.2865 C   0  0  0  0  0  0  0  0  0  0  0  0
   14.8754   21.7006    6.4600 C   0  0  0  0  0  0  0  0  0  0  0  0
   17.1614   20.8016    6.1442 C   0  0  0  0  0  0  0  0  0  0  0  0
   26.9292   -0.6810    4.4581 C   0  0  0  0  0  0  0  0  0  0  0  0
    5.1763   -0.1756    4.9148 C   0  0  0  0  0  0  0  0  0  0  0  0
   25.9087   -0.5575    3.3269 C   0  0  0  0  0  0  0  0  0  0  0  0
    6.2181    0.4226    3.9697 C   0  0  0  0  0  0  0  0  0  0  0  0
   25.4766    0.8956    3.1236 C   0  0  0  0  0  0  0  0  0  0  0  0
    6.4082    1.9185    4.2262 C   0  0  0  0  0  0  0  0  0  0  0  0
   24.4550    1.0193    1.9920 C   0  0  0  0  0  0  0  0  0  0  0  0
    7.4511    2.5170    3.2809 C   0  0  0  0  0  0  0  0  0  0  0  0
   24.0276    2.4731    1.7849 C   0  0  0  0  0  0  0  0  0  0  0  0
    7.6421    4.0127    3.5384 C   0  0  0  0  0  0  0  0  0  0  0  0
   23.0053    2.5980    0.6530 C   0  0  0  0  0  0  0  0  0  0  0  0
    8.6860    4.6107    2.5938 C   0  0  0  0  0  0  0  0  0  0  0  0
   22.6398    4.0633    0.3965 C   0  0  0  0  0  0  0  0  0  0  0  0
    8.8799    6.1056    2.8533 C   0  0  0  0  0  0  0  0  0  0  0  0
   21.6915    4.2086   -0.7612 C   0  0  0  0  0  0  0  0  0  0  0  0
   20.8025    5.2022   -0.9219 C   0  0  0  0  0  0  0  0  0  0  0  0
    9.9263    6.7024    1.9108 C   0  0  0  0  0  0  0  0  0  0  0  0
   20.6341    6.3769    0.0000 C   0  0  0  0  0  0  0  0  0  0  0  0
   10.1249    8.1960    2.1735 C   0  0  0  0  0  0  0  0  0  0  0  0
   20.0596    7.5959   -0.7233 C   0  0  0  0  0  0  0  0  0  0  0  0
   11.1752    8.7906    1.2340 C   0  0  0  0  0  0  0  0  0  0  0  0
   19.8628    8.7597    0.2486 C   0  0  0  0  0  0  0  0  0  0  0  0
   11.3805   10.2827    1.5007 C   0  0  0  0  0  0  0  0  0  0  0  0
   19.1775    9.9417   -0.4334 C   0  0  0  0  0  0  0  0  0  0  0  0
   12.4358   10.8741    0.5651 C   0  0  0  0  0  0  0  0  0  0  0  0
   19.0115   11.1139    0.5332 C   0  0  0  0  0  0  0  0  0  0  0  0
   12.6486   12.3639    0.8356 C   0  0  0  0  0  0  0  0  0  0  0  0
   18.2840   12.2734   -0.1411 C   0  0  0  0  0  0  0  0  0  0  0  0
   13.7068   12.9500   -0.0970 C   0  0  0  0  0  0  0  0  0  0  0  0
   18.1487   13.4711    0.7961 C   0  0  0  0  0  0  0  0  0  0  0  0
   15.1777   19.6976    5.0239 C   0  0  0  0  0  0  0  0  0  0  0  0
   15.9696   18.8439    4.0289 C   0  0  0  0  0  0  0  0  0  0  0  0
   15.2255   16.2675   -0.5499 C   0  0  0  0  0  0  0  0  0  0  0  0
   17.0109   17.8375    0.3309 C   0  0  0  0  0  0  0  0  0  0  0  0
   16.1589   16.6026    0.6239 C   0  0  2  0  0  0  0  0  0  0  0  0
   13.9414   14.4192    0.1657 C   0  0  0  0  0  0  0  0  0  0  0  0
   17.4082   14.5932    0.1207 C   0  0  0  0  0  0  0  0  0  0  0  0
   15.8150   21.0341    5.4727 N   0  0  0  0  0  0  0  0  0  0  0  0
   13.2922   15.1162    0.9324 O   0  0  0  0  0  0  0  0  0  0  0  0
   17.1775   14.6454   -1.0799 O   0  0  0  0  0  0  0  0  0  0  0  0
   18.4583   19.9440    3.2256 O   0  0  0  0  0  0  0  0  0  0  0  0
   17.2980   20.6988    0.9971 O   0  0  0  0  0  0  0  0  0  0  0  0
   15.0081   14.8425   -0.5672 O   0  0  0  0  0  0  0  0  0  0  0  0
   16.0233   19.4866    2.7729 O   0  0  0  0  0  0  0  0  0  0  0  0
   17.7147   18.2117    1.5075 O   0  0  0  0  0  0  0  0  0  0  0  0
   17.0045   15.4980    1.0480 O   0  0  0  0  0  0  0  0  0  0  0  0
   17.4888   19.6971    2.0988 P   0  0  2  0  0  5  0  0  0  0  0  0
   27.8255   -2.5273    3.7576 H   0  0  0  0  0  0  0  0  0  0  0  0
   26.5063   -2.7566    4.9226 H   0  0  0  0  0  0  0  0  0  0  0  0
   28.0910   -2.1891    5.4766 H   0  0  0  0  0  0  0  0  0  0  0  0
    4.2362   -2.0700    5.3499 H   0  0  0  0  0  0  0  0  0  0  0  0
    5.9204   -2.2103    4.8174 H   0  0  0  0  0  0  0  0  0  0  0  0
    4.6434   -1.8468    3.6397 H   0  0  0  0  0  0  0  0  0  0  0  0
   15.1145   21.9621    3.6661 H   0  0  0  0  0  0  0  0  0  0  0  0
   16.9001   21.7017    3.7291 H   0  0  0  0  0  0  0  0  0  0  0  0
   16.1685   22.9934    4.6830 H   0  0  0  0  0  0  0  0  0  0  0  0
   14.7213   21.0244    7.3065 H   0  0  0  0  0  0  0  0  0  0  0  0
   13.9258   21.9031    5.9553 H   0  0  0  0  0  0  0  0  0  0  0  0
   15.3290   22.6350    6.8051 H   0  0  0  0  0  0  0  0  0  0  0  0
   17.5529   21.7692    6.4730 H   0  0  0  0  0  0  0  0  0  0  0  0
   17.0027   20.1470    7.0066 H   0  0  0  0  0  0  0  0  0  0  0  0
   17.8544   20.3386    5.4486 H   0  0  0  0  0  0  0  0  0  0  0  0
   26.4993   -0.2982    5.3910 H   0  0  0  0  0  0  0  0  0  0  0  0
   27.8110   -0.0701    4.2324 H   0  0  0  0  0  0  0  0  0  0  0  0
    4.2167    0.3374    4.7843 H   0  0  0  0  0  0  0  0  0  0  0  0
    5.4866   -0.0240    5.9552 H   0  0  0  0  0  0  0  0  0  0  0  0
   26.3422   -0.9455    2.3971 H   0  0  0  0  0  0  0  0  0  0  0  0
   25.0305   -1.1734    3.5555 H   0  0  0  0  0  0  0  0  0  0  0  0
    5.9048    0.2648    2.9305 H   0  0  0  0  0  0  0  0  0  0  0  0
    7.1750   -0.0973    4.1011 H   0  0  0  0  0  0  0  0  0  0  0  0
   25.0435    1.2838    4.0534 H   0  0  0  0  0  0  0  0  0  0  0  0
   26.3551    1.5111    2.8943 H   0  0  0  0  0  0  0  0  0  0  0  0
    6.7211    2.0759    5.2656 H   0  0  0  0  0  0  0  0  0  0  0  0
    5.4514    2.4383    4.0942 H   0  0  0  0  0  0  0  0  0  0  0  0
   23.5747    0.4071    2.2228 H   0  0  0  0  0  0  0  0  0  0  0  0
   24.8870    0.6273    1.0631 H   0  0  0  0  0  0  0  0  0  0  0  0
    7.1379    2.3603    2.2416 H   0  0  0  0  0  0  0  0  0  0  0  0
    8.4075    1.9966    3.4123 H   0  0  0  0  0  0  0  0  0  0  0  0
   23.5973    2.8685    2.7130 H   0  0  0  0  0  0  0  0  0  0  0  0
   24.9099    3.0819    1.5525 H   0  0  0  0  0  0  0  0  0  0  0  0
    6.6858    4.5334    3.4061 H   0  0  0  0  0  0  0  0  0  0  0  0
    7.9547    4.1693    4.5780 H   0  0  0  0  0  0  0  0  0  0  0  0
   22.1027    2.0276    0.9055 H   0  0  0  0  0  0  0  0  0  0  0  0
   23.4206    2.1545   -0.2610 H   0  0  0  0  0  0  0  0  0  0  0  0
    8.3724    4.4560    1.5543 H   0  0  0  0  0  0  0  0  0  0  0  0
    9.6415    4.0883    2.7245 H   0  0  0  0  0  0  0  0  0  0  0  0
   23.5536    4.6227    0.1627 H   0  0  0  0  0  0  0  0  0  0  0  0
   22.2100    4.4909    1.3095 H   0  0  0  0  0  0  0  0  0  0  0  0
    9.1917    6.2602    3.8935 H   0  0  0  0  0  0  0  0  0  0  0  0
    7.9249    6.6287    2.7208 H   0  0  0  0  0  0  0  0  0  0  0  0
   21.7331    3.4369   -1.5288 H   0  0  0  0  0  0  0  0  0  0  0  0
   20.1508    5.1643   -1.7937 H   0  0  0  0  0  0  0  0  0  0  0  0
   10.8802    6.1766    2.0412 H   0  0  0  0  0  0  0  0  0  0  0  0
    9.6130    6.5507    0.8706 H   0  0  0  0  0  0  0  0  0  0  0  0
   19.9494    6.0847    0.8056 H   0  0  0  0  0  0  0  0  0  0  0  0
   21.5917    6.6500    0.4580 H   0  0  0  0  0  0  0  0  0  0  0  0
   10.4357    8.3476    3.2145 H   0  0  0  0  0  0  0  0  0  0  0  0
    9.1723    8.7227    2.0402 H   0  0  0  0  0  0  0  0  0  0  0  0
   19.0970    7.3346   -1.1810 H   0  0  0  0  0  0  0  0  0  0  0  0
   20.7303    7.9016   -1.5360 H   0  0  0  0  0  0  0  0  0  0  0  0
   12.1265    8.2604    1.3643 H   0  0  0  0  0  0  0  0  0  0  0  0
   10.8628    8.6430    0.1930 H   0  0  0  0  0  0  0  0  0  0  0  0
   20.8356    9.0725    0.6472 H   0  0  0  0  0  0  0  0  0  0  0  0
   19.2552    8.4311    1.1009 H   0  0  0  0  0  0  0  0  0  0  0  0
   10.4307   10.8144    1.3665 H   0  0  0  0  0  0  0  0  0  0  0  0
   11.6894   10.4303    2.5428 H   0  0  0  0  0  0  0  0  0  0  0  0
   19.7680   10.2606   -1.3008 H   0  0  0  0  0  0  0  0  0  0  0  0
   18.1947    9.6298   -0.8079 H   0  0  0  0  0  0  0  0  0  0  0  0
   13.3839   10.3384    0.6961 H   0  0  0  0  0  0  0  0  0  0  0  0
   12.1249   10.7308   -0.4770 H   0  0  0  0  0  0  0  0  0  0  0  0
   18.4478   10.7901    1.4164 H   0  0  0  0  0  0  0  0  0  0  0  0
   19.9972   11.4463    0.8810 H   0  0  0  0  0  0  0  0  0  0  0  0
   11.7015   12.9024    0.7050 H   0  0  0  0  0  0  0  0  0  0  0  0
   12.9540   12.5117    1.8790 H   0  0  0  0  0  0  0  0  0  0  0  0
   17.2911   11.9416   -0.4657 H   0  0  0  0  0  0  0  0  0  0  0  0
   18.8284   12.5720   -1.0459 H   0  0  0  0  0  0  0  0  0  0  0  0
   13.3868   12.8364   -1.1369 H   0  0  0  0  0  0  0  0  0  0  0  0
   14.6548   12.4194    0.0458 H   0  0  0  0  0  0  0  0  0  0  0  0
   17.5913   13.1711    1.6907 H   0  0  0  0  0  0  0  0  0  0  0  0
   19.1355   13.8396    1.0950 H   0  0  0  0  0  0  0  0  0  0  0  0
   15.0069   19.1189    5.9394 H   0  0  0  0  0  0  0  0  0  0  0  0
   14.2040   19.9600    4.5923 H   0  0  0  0  0  0  0  0  0  0  0  0
   16.9519   18.5673    4.4197 H   0  0  0  0  0  0  0  0  0  0  0  0
   15.4286   17.9033    3.8780 H   0  0  0  0  0  0  0  0  0  0  0  0
   15.6576   16.6024   -1.5016 H   0  0  0  0  0  0  0  0  0  0  0  0
   14.2649   16.7794   -0.4200 H   0  0  0  0  0  0  0  0  0  0  0  0
   16.3762   18.6525   -0.0305 H   0  0  0  0  0  0  0  0  0  0  0  0
   17.7607   17.6165   -0.4355 H   0  0  0  0  0  0  0  0  0  0  0  0
   15.5327   16.8011    1.5018 H   0  0  0  0  0  0  0  0  0  0  0  0
   -4.6386    2.1241   -4.6634 C   0  0  0  0  0  0  0  0  0  0  0  0
  -27.0149    1.6629   -4.6634 C   0  0  0  0  0  0  0  0  0  0  0  0
  -15.9856  -21.9844   -4.2865 C   0  0  0  0  0  0  0  0  0  0  0  0
  -17.1246  -21.7006   -6.4600 C   0  0  0  0  0  0  0  0  0  0  0  0
  -14.8386  -20.8016   -6.1442 C   0  0  0  0  0  0  0  0  0  0  0  0
   -5.0708    0.6810   -4.4581 C   0  0  0  0  0  0  0  0  0  0  0  0
  -26.8237    0.1756   -4.9148 C   0  0  0  0  0  0  0  0  0  0  0  0
   -6.0913    0.5575   -3.3269 C   0  0  0  0  0  0  0  0  0  0  0  0
  -25.7819   -0.4226   -3.9697 C   0  0  0  0  0  0  0  0  0  0  0  0
   -6.5234   -0.8956   -3.1236 C   0  0  0  0  0  0  0  0  0  0  0  0
  -25.5918   -1.9185   -4.2262 C   0  0  0  0  0  0  0  0  0  0  0  0
   -7.5450   -1.0193   -1.9920 C   0  0  0  0  0  0  0  0  0  0  0  0
  -24.5489   -2.5170   -3.2809 C   0  0  0  0  0  0  0  0  0  0  0  0
   -7.9724   -2.4731   -1.7849 C   0  0  0  0  0  0  0  0  0  0  0  0
  -24.3579   -4.0127   -3.5384 C   0  0  0  0  0  0  0  0  0  0  0  0
   -8.9947   -2.5980   -0.6530 C   0  0  0  0  0  0  0  0  0  0  0  0
  -23.3140   -4.6107   -2.5938 C   0  0  0  0  0  0  0  0  0  0  0  0
   -9.3602   -4.0633   -0.3965 C   0  0  0  0  0  0  0  0  0  0  0  0
  -23.1201   -6.1056   -2.8533 C   0  0  0  0  0  0  0  0  0  0  0  0
  -10.3085   -4.2086    0.7612 C   0  0  0  0  0  0  0  0  0  0  0  0
  -11.1975   -5.2022    0.9219 C   0  0  0  0  0  0  0  0  0  0  0  0
  -22.0737   -6.7024   -1.9108 C   0  0  0  0  0  0  0  0  0  0  0  0
  -11.3659   -6.3769    0.0000 C   0  0  0  0  0  0  0  0  0  0  0  0
  -21.8751   -8.1960   -2.1735 C   0  0  0  0  0  0  0  0  0  0  0  0
  -11.9404   -7.5959    0.7233 C   0  0  0  0  0  0  0  0  0  0  0  0
  -20.8248   -8.7906   -1.2340 C   0  0  0  0  0  0  0  0  0  0  0  0
  -12.1372   -8.7597   -0.2486 C   0  0  0  0  0  0  0  0  0  0  0  0
  -20.6195  -10.2827   -1.5007 C   0  0  0  0  0  0  0  0  0  0  0  0
  -12.8225   -9.9417    0.4334 C   0  0  0  0  0  0  0  0  0  0  0  0
  -19.5642  -10.8741   -0.5651 C   0  0  0  0  0  0  0  0  0  0  0  0
  -12.9885  -11.1139   -0.5332 C   0  0  0  0  0  0  0  0  0  0  0  0
  -19.3514  -12.3639   -0.8356 C   0  0  0  0  0  0  0  0  0  0  0  0
  -13.7160  -12.2734    0.1411 C   0  0  0  0  0  0  0  0  0  0  0  0
  -18.2932  -12.9500    0.0970 C   0  0  0  0  0  0  0  0  0  0  0  0
  -13.8513  -13.4711   -0.7961 C   0  0  0  0  0  0  0  0  0  0  0  0
  -16.8223  -19.6976   -5.0239 C   0  0  0  0  0  0  0  0  0  0  0  0
  -16.0304  -18.8439   -4.0289 C   0  0  0  0  0  0  0  0  0  0  0  0
  -16.7745  -16.2675    0.5499 C   0  0  0  0  0  0  0  0  0  0  0  0
  -14.9891  -17.8375   -0.3309 C   0  0  0  0  0  0  0  0  0  0  0  0
  -15.8411  -16.6026   -0.6239 C   0  0  2  0  0  0  0  0  0  0  0  0
  -18.0586  -14.4192   -0.1657 C   0  0  0  0  0  0  0  0  0  0  0  0
  -14.5918  -14.5932   -0.1207 C   0  0  0  0  0  0  0  0  0  0  0  0
  -16.1850  -21.0341   -5.4727 N   0  0  0  0  0  0  0  0  0  0  0  0
  -18.7078  -15.1162   -0.9324 O   0  0  0  0  0  0  0  0  0  0  0  0
  -14.8225  -14.6454    1.0799 O   0  0  0  0  0  0  0  0  0  0  0  0
  -13.5417  -19.9440   -3.2256 O   0  0  0  0  0  0  0  0  0  0  0  0
  -14.7020  -20.6988   -0.9971 O   0  0  0  0  0  0  0  0  0  0  0  0
  -16.9919  -14.8425    0.5672 O   0  0  0  0  0  0  0  0  0  0  0  0
  -15.9767  -19.4866   -2.7729 O   0  0  0  0  0  0  0  0  0  0  0  0
  -14.2853  -18.2117   -1.5075 O   0  0  0  0  0  0  0  0  0  0  0  0
  -14.9955  -15.4980   -1.0480 O   0  0  0  0  0  0  0  0  0  0  0  0
  -14.5112  -19.6971   -2.0988 P   0  0  2  0  0  5  0  0  0  0  0  0
   -4.1745    2.5273   -3.7576 H   0  0  0  0  0  0  0  0  0  0  0  0
   -5.4937    2.7566   -4.9226 H   0  0  0  0  0  0  0  0  0  0  0  0
   -3.9090    2.1891   -5.4766 H   0  0  0  0  0  0  0  0  0  0  0  0
  -27.7638    2.0700   -5.3499 H   0  0  0  0  0  0  0  0  0  0  0  0
  -26.0796    2.2103   -4.8174 H   0  0  0  0  0  0  0  0  0  0  0  0
  -27.3566    1.8468   -3.6397 H   0  0  0  0  0  0  0  0  0  0  0  0
  -16.8855  -21.9621   -3.6661 H   0  0  0  0  0  0  0  0  0  0  0  0
  -15.0999  -21.7017   -3.7291 H   0  0  0  0  0  0  0  0  0  0  0  0
  -15.8315  -22.9934   -4.6830 H   0  0  0  0  0  0  0  0  0  0  0  0
  -17.2787  -21.0244   -7.3065 H   0  0  0  0  0  0  0  0  0  0  0  0
  -18.0742  -21.9031   -5.9553 H   0  0  0  0  0  0  0  0  0  0  0  0
  -16.6710  -22.6350   -6.8051 H   0  0  0  0  0  0  0  0  0  0  0  0
  -14.4471  -21.7692   -6.4730 H   0  0  0  0  0  0  0  0  0  0  0  0
  -14.9973  -20.1470   -7.0066 H   0  0  0  0  0  0  0  0  0  0  0  0
  -14.1456  -20.3386   -5.4486 H   0  0  0  0  0  0  0  0  0  0  0  0
   -5.5007    0.2982   -5.3910 H   0  0  0  0  0  0  0  0  0  0  0  0
   -4.1890    0.0701   -4.2324 H   0  0  0  0  0  0  0  0  0  0  0  0
  -27.7833   -0.3374   -4.7843 H   0  0  0  0  0  0  0  0  0  0  0  0
  -26.5134    0.0240   -5.9552 H   0  0  0  0  0  0  0  0  0  0  0  0
   -5.6578    0.9455   -2.3971 H   0  0  0  0  0  0  0  0  0  0  0  0
   -6.9695    1.1734   -3.5555 H   0  0  0  0  0  0  0  0  0  0  0  0
  -26.0952   -0.2648   -2.9305 H   0  0  0  0  0  0  0  0  0  0  0  0
  -24.8250    0.0973   -4.1011 H   0  0  0  0  0  0  0  0  0  0  0  0
   -6.9565   -1.2838   -4.0534 H   0  0  0  0  0  0  0  0  0  0  0  0
   -5.6449   -1.5111   -2.8943 H   0  0  0  0  0  0  0  0  0  0  0  0
  -25.2789   -2.0759   -5.2656 H   0  0  0  0  0  0  0  0  0  0  0  0
  -26.5486   -2.4383   -4.0942 H   0  0  0  0  0  0  0  0  0  0  0  0
   -8.4253   -0.4071   -2.2228 H   0  0  0  0  0  0  0  0  0  0  0  0
   -7.1130   -0.6273   -1.0631 H   0  0  0  0  0  0  0  0  0  0  0  0
  -24.8621   -2.3603   -2.2416 H   0  0  0  0  0  0  0  0  0  0  0  0
  -23.5925   -1.9966   -3.4123 H   0  0  0  0  0  0  0  0  0  0  0  0
   -8.4027   -2.8685   -2.7130 H   0  0  0  0  0  0  0  0  0  0  0  0
   -7.0901   -3.0819   -1.5525 H   0  0  0  0  0  0  0  0  0  0  0  0
  -25.3142   -4.5334   -3.4061 H   0  0  0  0  0  0  0  0  0  0  0  0
  -24.0453   -4.1693   -4.5780 H   0  0  0  0  0  0  0  0  0  0  0  0
   -9.8973   -2.0276   -0.9055 H   0  0  0  0  0  0  0  0  0  0  0  0
   -8.5794   -2.1545    0.2610 H   0  0  0  0  0  0  0  0  0  0  0  0
  -23.6276   -4.4560   -1.5543 H   0  0  0  0  0  0  0  0  0  0  0  0
  -22.3585   -4.0883   -2.7245 H   0  0  0  0  0  0  0  0  0  0  0  0
   -8.4464   -4.6227   -0.1627 H   0  0  0  0  0  0  0  0  0  0  0  0
   -9.7900   -4.4909   -1.3095 H   0  0  0  0  0  0  0  0  0  0  0  0
  -22.8083   -6.2602   -3.8935 H   0  0  0  0  0  0  0  0  0  0  0  0
  -24.0751   -6.6287   -2.7208 H   0  0  0  0  0  0  0  0  0  0  0  0
  -10.2669   -3.4369    1.5288 H   0  0  0  0  0  0  0  0  0  0  0  0
  -11.8492   -5.1643    1.7937 H   0  0  0  0  0  0  0  0  0  0  0  0
  -21.1198   -6.1766   -2.0412 H   0  0  0  0  0  0  0  0  0  0  0  0
  -22.3870   -6.5507   -0.8706 H   0  0  0  0  0  0  0  0  0  0  0  0
  -12.0506   -6.0847   -0.8056 H   0  0  0  0  0  0  0  0  0  0  0  0
  -10.4083   -6.6500   -0.4580 H   0  0  0  0  0  0  0  0  0  0  0  0
  -21.5643   -8.3476   -3.2145 H   0  0  0  0  0  0  0  0  0  0  0  0
  -22.8277   -8.7227   -2.0402 H   0  0  0  0  0  0  0  0  0  0  0  0
  -12.9030   -7.3346    1.1810 H   0  0  0  0  0  0  0  0  0  0  0  0
  -11.2697   -7.9016    1.5360 H   0  0  0  0  0  0  0  0  0  0  0  0
  -19.8735   -8.2604   -1.3643 H   0  0  0  0  0  0  0  0  0  0  0  0
  -21.1372   -8.6430   -0.1930 H   0  0  0  0  0  0  0  0  0  0  0  0
  -11.1644   -9.0725   -0.6472 H   0  0  0  0  0  0  0  0  0  0  0  0
  -12.7448   -8.4311   -1.1009 H   0  0  0  0  0  0  0  0  0  0  0  0
  -21.5693  -10.8144   -1.3665 H   0  0  0  0  0  0  0  0  0  0  0  0
  -20.3106  -10.4303   -2.5428 H   0  0  0  0  0  0  0  0  0  0  0  0
  -12.2320  -10.2606    1.3008 H   0  0  0  0  0  0  0  0  0  0  0  0
  -13.8053   -9.6298    0.8079 H   0  0  0  0  0  0  0  0  0  0  0  0
  -18.6161  -10.3384   -0.6961 H   0  0  0  0  0  0  0  0  0  0  0  0
  -19.8751  -10.7308    0.4770 H   0  0  0  0  0  0  0  0  0  0  0  0
  -13.5522  -10.7901   -1.4164 H   0  0  0  0  0  0  0  0  0  0  0  0
  -12.0028  -11.4463   -0.8810 H   0  0  0  0  0  0  0  0  0  0  0  0
  -20.2985  -12.9024   -0.7050 H   0  0  0  0  0  0  0  0  0  0  0  0
  -19.0460  -12.5117   -1.8790 H   0  0  0  0  0  0  0  0  0  0  0  0
  -14.7089  -11.9416    0.4657 H   0  0  0  0  0  0  0  0  0  0  0  0
  -13.1716  -12.5720    1.0459 H   0  0  0  0  0  0  0  0  0  0  0  0
  -18.6132  -12.8364    1.1369 H   0  0  0  0  0  0  0  0  0  0  0  0
  -17.3452  -12.4194   -0.0458 H   0  0  0  0  0  0  0  0  0  0  0  0
  -14.4087  -13.1711   -1.6907 H   0  0  0  0  0  0  0  0  0  0  0  0
  -12.8645  -13.8396   -1.0950 H   0  0  0  0  0  0  0  0  0  0  0  0
  -16.9931  -19.1189   -5.9394 H   0  0  0  0  0  0  0  0  0  0  0  0
  -17.7960  -19.9600   -4.5923 H   0  0  0  0  0  0  0  0  0  0  0  0
  -15.0481  -18.5673   -4.4197 H   0  0  0  0  0  0  0  0  0  0  0  0
  -16.5714  -17.9033   -3.8780 H   0  0  0  0  0  0  0  0  0  0  0  0
  -16.3424  -16.6024    1.5016 H   0  0  0  0  0  0  0  0  0  0  0  0
  -17.7351  -16.7794    0.4200 H   0  0  0  0  0  0  0  0  0  0  0  0
  -15.6238  -18.6525    0.0305 H   0  0  0  0  0  0  0  0  0  0  0  0
  -14.2393  -17.6165    0.4355 H   0  0  0  0  0  0  0  0  0  0  0  0
  -16.4673  -16.8011   -1.5018 H   0  0  0  0  0  0  0  0  0  0  0  0
   27.3614    2.1241   -4.6634 C   0  0  0  0  0  0  0  0  0  0  0  0
    4.9851    1.6629   -4.6634 C   0  0  0  0  0  0  0  0  0  0  0  0
   16.0144  -21.9844   -4.2865 C   0  0  0  0  0  0  0  0  0  0  0  0
   14.8754  -21.7006   -6.4600 C   0  0  0  0  0  0  0  0  0  0  0  0
   17.1614  -20.8016   -6.1442 C   0  0  0  0  0  0  0  0  0  0  0  0
   26.9292    0.6810   -4.4581 C   0  0  0  0  0  0  0  0  0  0  0  0
    5.1763    0.1756   -4.9148 C   0  0  0  0  0  0  0  0  0  0  0  0
   25.9087    0.5575   -3.3269 C   0  0  0  0  0  0  0  0  0  0  0  0
    6.2181   -0.4226   -3.9697 C   0  0  0  0  0  0  0  0  0  0  0  0
   25.4766   -0.8956   -3.1236 C   0  0  0  0  0  0  0  0  0  0  0  0
    6.4082   -1.9185   -4.2262 C   0  0  0  0  0  0  0  0  0  0  0  0
   24.4550   -1.0193   -1.9920 C   0  0  0  0  0  0  0  0  0  0  0  0
    7.4511   -2.5170   -3.2809 C   0  0  0  0  0  0  0  0  0  0  0  0
   24.0276   -2.4731   -1.7849 C   0  0  0  0  0  0  0  0  0  0  0  0
    7.6421   -4.0127   -3.5384 C   0  0  0  0  0  0  0  0  0  0  0  0
   23.0053   -2.5980   -0.6530 C   0  0  0  0  0  0  0  0  0  0  0  0
    8.6860   -4.6107   -2.5938 C   0  0  0  0  0  0  0  0  0  0  0  0
   22.6398   -4.0633   -0.3965 C   0  0  0  0  0  0  0  0  0  0  0  0
    8.8799   -6.1056   -2.8533 C   0  0  0  0  0  0  0  0  0  0  0  0
   21.6915   -4.2086    0.7612 C   0  0  0  0  0  0  0  0  0  0  0  0
   20.8025   -5.2022    0.9219 C   0  0  0  0  0  0  0  0  0  0  0  0
    9.9263   -6.7024   -1.9108 C   0  0  0  0  0  0  0  0  0  0  0  0
   20.6341   -6.3769    0.0000 C   0  0  0  0  0  0  0  0  0  0  0  0
   10.1249   -8.1960   -2.1735 C   0  0  0  0  0  0  0  0  0  0  0  0
   20.0596   -7.5959    0.7233 C   0  0  0  0  0  0  0  0  0  0  0  0
   11.1752   -8.7906   -1.2340 C   0  0  0  0  0  0  0  0  0  0  0  0
   19.8628   -8.7597   -0.2486 C   0  0  0  0  0  0  0  0  0  0  0  0
   11.3805  -10.2827   -1.5007 C   0  0  0  0  0  0  0  0  0  0  0  0
   19.1775   -9.9417    0.4334 C   0  0  0  0  0  0  0  0  0  0  0  0
   12.4358  -10.8741   -0.5651 C   0  0  0  0  0  0  0  0  0  0  0  0
   19.0115  -11.1139   -0.5332 C   0  0  0  0  0  0  0  0  0  0  0  0
   12.6486  -12.3639   -0.8356 C   0  0  0  0  0  0  0  0  0  0  0  0
   18.2840  -12.2734    0.1411 C   0  0  0  0  0  0  0  0  0  0  0  0
   13.7068  -12.9500    0.0970 C   0  0  0  0  0  0  0  0  0  0  0  0
   18.1487  -13.4711   -0.7961 C   0  0  0  0  0  0  0  0  0  0  0  0
   15.1777  -19.6976   -5.0239 C   0  0  0  0  0  0  0  0  0  0  0  0
   15.9696  -18.8439   -4.0289 C   0  0  0  0  0  0  0  0  0  0  0  0
   15.2255  -16.2675    0.5499 C   0  0  0  0  0  0  0  0  0  0  0  0
   17.0109  -17.8375   -0.3309 C   0  0  0  0  0  0  0  0  0  0  0  0
   16.1589  -16.6026   -0.6239 C   0  0  2  0  0  0  0  0  0  0  0  0
   13.9414  -14.4192   -0.1657 C   0  0  0  0  0  0  0  0  0  0  0  0
   17.4082  -14.5932   -0.1207 C   0  0  0  0  0  0  0  0  0  0  0  0
   15.8150  -21.0341   -5.4727 N   0  0  0  0  0  0  0  0  0  0  0  0
   13.2922  -15.1162   -0.9324 O   0  0  0  0  0  0  0  0  0  0  0  0
   17.1775  -14.6454    1.0799 O   0  0  0  0  0  0  0  0  0  0  0  0
   18.4583  -19.9440   -3.2256 O   0  0  0  0  0  0  0  0  0  0  0  0
   17.2980  -20.6988   -0.9971 O   0  0  0  0  0  0  0  0  0  0  0  0
   15.0081  -14.8425    0.5672 O   0  0  0  0  0  0  0  0  0  0  0  0
   16.0233  -19.4866   -2.7729 O   0  0  0  0  0  0  0  0  0  0  0  0
   17.7147  -18.2117   -1.5075 O   0  0  0  0  0  0  0  0  0  0  0  0
   17.0045  -15.4980   -1.0480 O   0  0  0  0  0  0  0  0  0  0  0  0
   17.4888  -19.6971   -2.0988 P   0  0  2  0  0  5  0  0  0  0  0  0
   27.8255    2.5273   -3.7576 H   0  0  0  0  0  0  0  0  0  0  0  0
   26.5063    2.7566   -4.9226 H   0  0  0  0  0  0  0  0  0  0  0  0
   28.0910    2.1891   -5.4766 H   0  0  0  0  0  0  0  0  0  0  0  0
    4.2362    2.0700   -5.3499 H   0  0  0  0  0  0  0  0  0  0  0  0
    5.9204    2.2103   -4.8174 H   0  0  0  0  0  0  0  0  0  0  0  0
    4.6434    1.8468   -3.6397 H   0  0  0  0  0  0  0  0  0  0  0  0
   15.1145  -21.9621   -3.6661 H   0  0  0  0  0  0  0  0  0  0  0  0
   16.9001  -21.7017   -3.7291 H   0  0  0  0  0  0  0  0  0  0  0  0
   16.1685  -22.9934   -4.6830 H   0  0  0  0  0  0  0  0  0  0  0  0
   14.7213  -21.0244   -7.3065 H   0  0  0  0  0  0  0  0  0  0  0  0
   13.9258  -21.9031   -5.9553 H   0  0  0  0  0  0  0  0  0  0  0  0
   15.3290  -22.6350   -6.8051 H   0  0  0  0  0  0  0  0  0  0  0  0
   17.5529  -21.7692   -6.4730 H   0  0  0  0  0  0  0  0  0  0  0  0
   17.0027  -20.1470   -7.0066 H   0  0  0  0  0  0  0  0  0  0  0  0
   17.8544  -20.3386   -5.4486 H   0  0  0  0  0  0  0  0  0  0  0  0
   26.4993    0.2982   -5.3910 H   0  0  0  0  0  0  0  0  0  0  0  0
   27.8110    0.0701   -4.2324 H   0  0  0  0  0  0  0  0  0  0  0  0
    4.2167   -0.3374   -4.7843 H   0  0  0  0  0  0  0  0  0  0  0  0
    5.4866    0.0240   -5.9552 H   0  0  0  0  0  0  0  0  0  0  0  0
   26.3422    0.9455   -2.3971 H   0  0  0  0  0  0  0  0  0  0  0  0
   25.0305    1.1734   -3.5555 H   0  0  0  0  0  0  0  0  0  0  0  0
    5.9048   -0.2648   -2.9305 H   0  0  0  0  0  0  0  0  0  0  0  0
    7.1750    0.0973   -4.1011 H   0  0  0  0  0  0  0  0  0  0  0  0
   25.0435   -1.2838   -4.0534 H   0  0  0  0  0  0  0  0  0  0  0  0
   26.3551   -1.5111   -2.8943 H   0  0  0  0  0  0  0  0  0  0  0  0
    6.7211   -2.0759   -5.2656 H   0  0  0  0  0  0  0  0  0  0  0  0
    5.4514   -2.4383   -4.0942 H   0  0  0  0  0  0  0  0  0  0  0  0
   23.5747   -0.4071   -2.2228 H   0  0  0  0  0  0  0  0  0  0  0  0
   24.8870   -0.6273   -1.0631 H   0  0  0  0  0  0  0  0  0  0  0  0
    7.1379   -2.3603   -2.2416 H   0  0  0  0  0  0  0  0  0  0  0  0
    8.4075   -1.9966   -3.4123 H   0  0  0  0  0  0  0  0  0  0  0  0
   23.5973   -2.8685   -2.7130 H   0  0  0  0  0  0  0  0  0  0  0  0
   24.9099   -3.0819   -1.5525 H   0  0  0  0  0  0  0  0  0  0  0  0
    6.6858   -4.5334   -3.4061 H   0  0  0  0  0  0  0  0  0  0  0  0
    7.9547   -4.1693   -4.5780 H   0  0  0  0  0  0  0  0  0  0  0  0
   22.1027   -2.0276   -0.9055 H   0  0  0  0  0  0  0  0  0  0  0  0
   23.4206   -2.1545    0.2610 H   0  0  0  0  0  0  0  0  0  0  0  0
    8.3724   -4.4560   -1.5543 H   0  0  0  0  0  0  0  0  0  0  0  0
    9.6415   -4.0883   -2.7245 H   0  0  0  0  0  0  0  0  0  0  0  0
   23.5536   -4.6227   -0.1627 H   0  0  0  0  0  0  0  0  0  0  0  0
   22.2100   -4.4909   -1.3095 H   0  0  0  0  0  0  0  0  0  0  0  0
    9.1917   -6.2602   -3.8935 H   0  0  0  0  0  0  0  0  0  0  0  0
    7.9249   -6.6287   -2.7208 H   0  0  0  0  0  0  0  0  0  0  0  0
   21.7331   -3.4369    1.5288 H   0  0  0  0  0  0  0  0  0  0  0  0
   20.1508   -5.1643    1.7937 H   0  0  0  0  0  0  0  0  0  0  0  0
   10.8802   -6.1766   -2.0412 H   0  0  0  0  0  0  0  0  0  0  0  0
    9.6130   -6.5507   -0.8706 H   0  0  0  0  0  0  0  0  0  0  0  0
   19.9494   -6.0847   -0.8056 H   0  0  0  0  0  0  0  0  0  0  0  0
   21.5917   -6.6500   -0.4580 H   0  0  0  0  0  0  0  0  0  0  0  0
   10.4357   -8.3476   -3.2145 H   0  0  0  0  0  0  0  0  0  0  0  0
    9.1723   -8.7227   -2.0402 H   0  0  0  0  0  0  0  0  0  0  0  0
   19.0970   -7.3346    1.1810 H   0  0  0  0  0  0  0  0  0  0  0  0
   20.7303   -7.9016    1.5360 H   0  0  0  0  0  0  0  0  0  0  0  0
   12.1265   -8.2604   -1.3643 H   0  0  0  0  0  0  0  0  0  0  0  0
   10.8628   -8.6430   -0.1930 H   0  0  0  0  0  0  0  0  0  0  0  0
   20.8356   -9.0725   -0.6472 H   0  0  0  0  0  0  0  0  0  0  0  0
   19.2552   -8.4311   -1.1009 H   0  0  0  0  0  0  0  0  0  0  0  0
   10.4307  -10.8144   -1.3665 H   0  0  0  0  0  0  0  0  0  0  0  0
   11.6894  -10.4303   -2.5428 H   0  0  0  0  0  0  0  0  0  0  0  0
   19.7680  -10.2606    1.3008 H   0  0  0  0  0  0  0  0  0  0  0  0
   18.1947   -9.6298    0.8079 H   0  0  0  0  0  0  0  0  0  0  0  0
   13.3839  -10.3384   -0.6961 H   0  0  0  0  0  0  0  0  0  0  0  0
   12.1249  -10.7308    0.4770 H   0  0  0  0  0  0  0  0  0  0  0  0
   18.4478  -10.7901   -1.4164 H   0  0  0  0  0  0  0  0  0  0  0  0
   19.9972  -11.4463   -0.8810 H   0  0  0  0  0  0  0  0  0  0  0  0
   11.7015  -12.9024   -0.7050 H   0  0  0  0  0  0  0  0  0  0  0  0
   12.9540  -12.5117   -1.8790 H   0  0  0  0  0  0  0  0  0  0  0  0
   17.2911  -11.9416    0.4657 H   0  0  0  0  0  0  0  0  0  0  0  0
   18.8284  -12.5720    1.0459 H   0  0  0  0  0  0  0  0  0  0  0  0
   13.3868  -12.8364    1.1369 H   0  0  0  0  0  0  0  0  0  0  0  0
   14.6548  -12.4194   -0.0458 H   0  0  0  0  0  0  0  0  0  0  0  0
   17.5913  -13.1711   -1.6907 H   0  0  0  0  0  0  0  0  0  0  0  0
   19.1355  -13.8396   -1.0950 H   0  0  0  0  0  0  0  0  0  0  0  0
   15.0069  -19.1189   -5.9394 H   0  0  0  0  0  0  0  0  0  0  0  0
   14.2040  -19.9600   -4.5923 H   0  0  0  0  0  0  0  0  0  0  0  0
   16.9519  -18.5673   -4.4197 H   0  0  0  0  0  0  0  0  0  0  0  0
   15.4286  -17.9033   -3.8780 H   0  0  0  0  0  0  0  0  0  0  0  0
   15.6576  -16.6024    1.5016 H   0  0  0  0  0  0  0  0  0  0  0  0
   14.2649  -16.7794    0.4200 H   0  0  0  0  0  0  0  0  0  0  0  0
   16.3762  -18.6525    0.0305 H   0  0  0  0  0  0  0  0  0  0  0  0
   17.7607  -17.6165    0.4355 H   0  0  0  0  0  0  0  0  0  0  0  0
   15.5327  -16.8011   -1.5018 H   0  0  0  0  0  0  0  0  0  0  0  0
  1  6  1  0
  2  7  1  0
  3 43  1  0
  4 43  1  0
  5 43  1  0
  6  8  1  0
  7  9  1  0
  8 10  1  0
  9 11  1  0
 10 12  1  0
 11 13  1  0
 12 14  1  0
 13 15  1  0
 14 16  1  0
 15 17  1  0
 16 18  1  0
 17 19  1  0
 18 20  1  0
 19 22  1  0
 20 21  2  0
 21 23  1  0
 22 24  1  0
 23 25  1  0
 24 26  1  0
 25 27  1  0
 26 28  1  0
 27 29  1  0
 28 30  1  0
 29 31  1  0
 30 32  1  0
 31 33  1  0
 32 34  1  0
 33 35  1  0
 34 41  1  0
 35 42  1  0
 36 37  1  0
 36 43  1  0
 37 49  1  0
 38 40  1  0
 38 48  1  0
 39 40  1  0
 39 50  1  0
 40 51  1  0
 41 44  2  0
 41 48  1  0
 42 45  2  0
 42 51  1  0
 46 52  2  0
 52 47  1  6
 49 52  1  0
 50 52  1  0
  1 53  1  0
  1 54  1  0
  1 55  1  0
  2 56  1  0
  2 57  1  0
  2 58  1  0
  3 59  1  0
  3 60  1  0
  3 61  1  0
  4 62  1  0
  4 63  1  0
  4 64  1  0
  5 65  1  0
  5 66  1  0
  5 67  1  0
  6 68  1  0
  6 69  1  0
  7 70  1  0
  7 71  1  0
  8 72  1  0
  8 73  1  0
  9 74  1  0
  9 75  1  0
 10 76  1  0
 10 77  1  0
 11 78  1  0
 11 79  1  0
 12 80  1  0
 12 81  1  0
 13 82  1  0
 13 83  1  0
 14 84  1  0
 14 85  1  0
 15 86  1  0
 15 87  1  0
 16 88  1  0
 16 89  1  0
 17 90  1  0
 17 91  1  0
 18 92  1  0
 18 93  1  0
 19 94  1  0
 19 95  1  0
 20 96  1  0
 21 97  1  0
 22 98  1  0
 22 99  1  0
 23100  1  0
 23101  1  0
 24102  1  0
 24103  1  0
 25104  1  0
 25105  1  0
 26106  1  0
 26107  1  0
 27108  1  0
 27109  1  0
 28110  1  0
 28111  1  0
 29112  1  0
 29113  1  0
 30114  1  0
 30115  1  0
 31116  1  0
 31117  1  0
 32118  1  0
 32119  1  0
 33120  1  0
 33121  1  0
 34122  1  0
 34123  1  0
 35124  1  0
 35125  1  0
 36126  1  0
 36127  1  0
 37128  1  0
 37129  1  0
 38130  1  0
 38131  1  0
 39132  1  0
 39133  1  0
 40134  1  1
135140  1  0
136141  1  0
137177  1  0
138177  1  0
139177  1  0
140142  1  0
141143  1  0
142144  1  0
143145  1  0
144146  1  0
145147  1  0
146148  1  0
147149  1  0
148150  1  0
149151  1  0
150152  1  0
151153  1  0
152154  1  0
153156  1  0
154155  2  0
155157  1  0
156158  1  0
157159  1  0
158160  1  0
159161  1  0
160162  1  0
161163  1  0
162164  1  0
163165  1  0
164166  1  0
165167  1  0
166168  1  0
167169  1  0
168175  1  0
169176  1  0
170171  1  0
170177  1  0
171183  1  0
172174  1  0
172182  1  0
173174  1  0
173184  1  0
174185  1  0
175178  2  0
175182  1  0
176179  2  0
176185  1  0
180186  2  0
186181  1  6
183186  1  0
184186  1  0
135187  1  0
135188  1  0
135189  1  0
136190  1  0
136191  1  0
136192  1  0
137193  1  0
137194  1  0
137195  1  0
138196  1  0
138197  1  0
138198  1  0
139199  1  0
139200  1  0
139201  1  0
140202  1  0
140203  1  0
141204  1  0
141205  1  0
142206  1  0
142207  1  0
143208  1  0
143209  1  0
144210  1  0
144211  1  0
145212  1  0
145213  1  0
146214  1  0
146215  1  0
147216  1  0
147217  1  0
148218  1  0
148219  1  0
149220  1  0
149221  1  0
150222  1  0
150223  1  0
151224  1  0
151225  1  0
152226  1  0
152227  1  0
153228  1  0
153229  1  0
154230  1  0
155231  1  0
156232  1  0
156233  1  0
157234  1  0
157235  1  0
158236  1  0
158237  1  0
159238  1  0
159239  1  0
160240  1  0
160241  1  0
161242  1  0
161243  1  0
162244  1  0
162245  1  0
163246  1  0
163247  1  0
164248  1  0
164249  1  0
165250  1  0
165251  1  0
166252  1  0
166253  1  0
167254  1  0
167255  1  0
168256  1  0
168257  1  0
169258  1  0
169259  1  0
170260  1  0
170261  1  0
171262  1  0
171263  1  0
172264  1  0
172265  1  0
173266  1  0
173267  1  0
174268  1  1
269274  1  0
270275  1  0
271311  1  0
272311  1  0
273311  1  0
274276  1  0
275277  1  0
276278  1  0
277279  1  0
278280  1  0
279281  1  0
280282  1  0
281283  1  0
282284  1  0
283285  1  0
284286  1  0
285287  1  0
286288  1  0
287290  1  0
288289  2  0
289291  1  0
290292  1  0
291293  1  0
292294  1  0
293295  1  0
294296  1  0
295297  1  0
296298  1  0
297299  1  0
298300  1  0
299301  1  0
300302  1  0
301303  1  0
302309  1  0
303310  1  0
304305  1  0
304311  1  0
305317  1  0
306308  1  0
306316  1  0
307308  1  0
307318  1  0
308319  1  0
309312  2  0
309316  1  0
310313  2  0
310319  1  0
314320  2  0
320315  1  1
317320  1  0
318320  1  0
269321  1  0
269322  1  0
269323  1  0
270324  1  0
270325  1  0
270326  1  0
271327  1  0
271328  1  0
271329  1  0
272330  1  0
272331  1  0
272332  1  0
273333  1  0
273334  1  0
273335  1  0
274336  1  0
274337  1  0
275338  1  0
275339  1  0
276340  1  0
276341  1  0
277342  1  0
277343  1  0
278344  1  0
278345  1  0
279346  1  0
279347  1  0
280348  1  0
280349  1  0
281350  1  0
281351  1  0
282352  1  0
282353  1  0
283354  1  0
283355  1  0
284356  1  0
284357  1  0
285358  1  0
285359  1  0
286360  1  0
286361  1  0
287362  1  0
287363  1  0
288364  1  0
289365  1  0
290366  1  0
290367  1  0
291368  1  0
291369  1  0
292370  1  0
292371  1  0
293372  1  0
293373  1  0
294374  1  0
294375  1  0
295376  1  0
295377  1  0
296378  1  0
296379  1  0
297380  1  0
297381  1  0
298382  1  0
298383  1  0
299384  1  0
299385  1  0
300386  1  0
300387  1  0
301388  1  0
301389  1  0
302390  1  0
302391  1  0
303392  1  0
303393  1  0
304394  1  0
304395  1  0
305396  1  0
305397  1  0
306398  1  0
306399  1  0
307400  1  0
307401  1  0
308402  1  6
403408  1  0
404409  1  0
405445  1  0
406445  1  0
407445  1  0
408410  1  0
409411  1  0
410412  1  0
411413  1  0
412414  1  0
413415  1  0
414416  1  0
415417  1  0
416418  1  0
417419  1  0
418420  1  0
419421  1  0
420422  1  0
421424  1  0
422423  2  0
423425  1  0
424426  1  0
425427  1  0
426428  1  0
427429  1  0
428430  1  0
429431  1  0
430432  1  0
431433  1  0
432434  1  0
433435  1  0
434436  1  0
435437  1  0
436443  1  0
437444  1  0
438439  1  0
438445  1  0
439451  1  0
440442  1  0
440450  1  0
441442  1  0
441452  1  0
442453  1  0
443446  2  0
443450  1  0
444447  2  0
444453  1  0
448454  2  0
454449  1  1
451454  1  0
452454  1  0
403455  1  0
403456  1  0
403457  1  0
404458  1  0
404459  1  0
404460  1  0
405461  1  0
405462  1  0
405463  1  0
406464  1  0
406465  1  0
406466  1  0
407467  1  0
407468  1  0
407469  1  0
408470  1  0
408471  1  0
409472  1  0
409473  1  0
410474  1  0
410475  1  0
411476  1  0
411477  1  0
412478  1  0
412479  1  0
413480  1  0
413481  1  0
414482  1  0
414483  1  0
415484  1  0
415485  1  0
416486  1  0
416487  1  0
417488  1  0
417489  1  0
418490  1  0
418491  1  0
419492  1  0
419493  1  0
420494  1  0
420495  1  0
421496  1  0
421497  1  0
422498  1  0
423499  1  0
424500  1  0
424501  1  0
425502  1  0
425503  1  0
426504  1  0
426505  1  0
427506  1  0
427507  1  0
428508  1  0
428509  1  0
429510  1  0
429511  1  0
430512  1  0
430513  1  0
431514  1  0
431515  1  0
432516  1  0
432517  1  0
433518  1  0
433519  1  0
434520  1  0
434521  1  0
435522  1  0
435523  1  0
436524  1  0
436525  1  0
437526  1  0
437527  1  0
438528  1  0
438529  1  0
439530  1  0
439531  1  0
440532  1  0
440533  1  0
441534  1  0
441535  1  0
442536  1  6
M  CHG  8  43   1  47  -1 177   1 181  -1 311   1 315  -1 445   1 449  -1
M  END
>  <SOURCE>  (1) 
Identity: PubChem CID 5497103; coordinates: RDKit ETKDGv3/MMFF, extended-tail constrained educational conformer

>  <NOTE>  (1) 
Two molecules per leaflet. Heads face outward; tails face the interior. Illustrative widely spaced patch, not an equilibrated membrane simulation.

$$$$
