cellulose-fragment
     RDKit          3D

 87 90  0  0  1  0  0  0  0  0999 V2000
   -6.4011    0.9407   -1.0110 O   0  0  0  0  0  0  0  0  0  0  0  0
   -9.6786    1.4208   -1.2036 O   0  0  0  0  0  0  0  0  0  0  0  0
   -9.6936   -1.1485    0.3070 O   0  0  0  0  0  0  0  0  0  0  0  0
   -7.1794   -2.3639    0.3845 O   0  0  0  0  0  0  0  0  0  0  0  0
   -5.0183   -0.1207    0.5857 O   0  0  0  0  0  0  0  0  0  0  0  0
   -5.6409    3.0216    0.7582 O   0  0  0  0  0  0  0  0  0  0  0  0
   -8.7374    1.0087   -0.2003 C   0  0  1  0  0  0  0  0  0  0  0  0
   -8.5642   -0.5094   -0.3064 C   0  0  1  0  0  0  0  0  0  0  0  0
   -7.4027    1.7598   -0.3868 C   0  0  1  0  0  0  0  0  0  0  0  0
   -7.2759   -0.9292    0.3822 C   0  0  2  0  0  0  0  0  0  0  0  0
   -6.0831   -0.2843   -0.3558 C   0  0  1  0  0  0  0  0  0  0  0  0
   -6.8967    2.3658    0.9352 C   0  0  0  0  0  0  0  0  0  0  0  0
   -2.1209   -1.7571    0.4881 O   0  0  0  0  0  0  0  0  0  0  0  0
   -3.1134    2.1841    1.0654 O   0  0  0  0  0  0  0  0  0  0  0  0
   -0.6027    1.3235    1.6980 O   0  0  0  0  0  0  0  0  0  0  0  0
   -0.0320   -1.1714   -0.3423 O   0  0  0  0  0  0  0  0  0  0  0  0
   -1.7483   -0.3426   -2.2334 O   0  0  0  0  0  0  0  0  0  0  0  0
   -3.7219    0.0670   -0.0368 C   0  0  1  0  0  0  0  0  0  0  0  0
   -2.8519    0.7706    1.0166 C   0  0  1  0  0  0  0  0  0  0  0  0
   -3.1258   -1.3083   -0.4319 C   0  0  1  0  0  0  0  0  0  0  0  0
   -1.3712    0.6041    0.7063 C   0  0  2  0  0  0  0  0  0  0  0  0
   -0.9978   -0.8918    0.6847 C   0  0  1  0  0  0  0  0  0  0  0  0
   -2.6586   -1.3787   -1.8959 C   0  0  0  0  0  0  0  0  0  0  0  0
    3.0674    0.1844   -0.6728 O   0  0  0  0  0  0  0  0  0  0  0  0
    1.5194   -3.5821   -0.8178 O   0  0  0  0  0  0  0  0  0  0  0  0
    4.1549   -3.1543   -1.5433 O   0  0  0  0  0  0  0  0  0  0  0  0
    5.0814   -0.6148    0.2396 O   0  0  0  0  0  0  0  0  0  0  0  0
    1.5742    0.0919    2.7275 O   0  0  0  0  0  0  0  0  0  0  0  0
    1.3153   -1.3566    0.1522 C   0  0  1  0  0  0  0  0  0  0  0  0
    2.0208   -2.2331   -0.8907 C   0  0  1  0  0  0  0  0  0  0  0  0
    2.0635   -0.0143    0.3280 C   0  0  1  0  0  0  0  0  0  0  0  0
    3.5203   -2.2466   -0.6264 C   0  0  2  0  0  0  0  0  0  0  0  0
    4.0855   -0.8158   -0.7675 C   0  0  1  0  0  0  0  0  0  0  0  0
    2.6112    0.1643    1.7539 C   0  0  0  0  0  0  0  0  0  0  0  0
    8.4928    0.8252    0.5995 O   0  0  0  0  0  0  0  0  0  0  0  0
    5.5914    1.7783   -1.8988 O   0  0  0  0  0  0  0  0  0  0  0  0
    6.7186    3.0436    1.2923 O   0  0  0  0  0  0  0  0  0  0  0  0
    8.5073    1.5690   -1.5749 O   0  0  0  0  0  0  0  0  0  0  0  0
    8.2586   -1.9812   -0.0071 O   0  0  0  0  0  0  0  0  0  0  0  0
    6.2175    0.1567   -0.1978 C   0  0  1  0  0  0  0  0  0  0  0  0
    5.8398    1.6315   -0.4853 C   0  0  1  0  0  0  0  0  0  0  0  0
    7.2998    0.0784    0.8975 C   0  0  1  0  0  0  0  0  0  0  0  0
    6.9357    2.6249   -0.0628 C   0  0  2  0  0  0  0  0  0  0  0  0
    8.3139    1.9637   -0.2250 C   0  0  1  0  0  0  0  0  0  0  0  0
    7.7268   -1.3739    1.1720 C   0  0  0  0  0  0  0  0  0  0  0  0
  -10.4604    0.8453   -1.0877 H   0  0  0  0  0  0  0  0  0  0  0  0
   -9.4378   -2.0902    0.3917 H   0  0  0  0  0  0  0  0  0  0  0  0
   -6.3823   -2.5848    0.9036 H   0  0  0  0  0  0  0  0  0  0  0  0
   -5.7101    3.5733   -0.0441 H   0  0  0  0  0  0  0  0  0  0  0  0
   -9.2005    1.2835    0.7550 H   0  0  0  0  0  0  0  0  0  0  0  0
   -8.5695   -0.8368   -1.3536 H   0  0  0  0  0  0  0  0  0  0  0  0
   -7.5525    2.5936   -1.0836 H   0  0  0  0  0  0  0  0  0  0  0  0
   -7.3029   -0.6367    1.4387 H   0  0  0  0  0  0  0  0  0  0  0  0
   -5.7536   -0.9768   -1.1388 H   0  0  0  0  0  0  0  0  0  0  0  0
   -6.7531    1.6057    1.7071 H   0  0  0  0  0  0  0  0  0  0  0  0
   -7.6119    3.1007    1.3190 H   0  0  0  0  0  0  0  0  0  0  0  0
   -4.0916    2.3046    1.0829 H   0  0  0  0  0  0  0  0  0  0  0  0
   -1.0952    2.1698    1.7965 H   0  0  0  0  0  0  0  0  0  0  0  0
   -0.8717   -0.6242   -1.8964 H   0  0  0  0  0  0  0  0  0  0  0  0
   -3.8543    0.7194   -0.9085 H   0  0  0  0  0  0  0  0  0  0  0  0
   -3.0732    0.3964    2.0241 H   0  0  0  0  0  0  0  0  0  0  0  0
   -3.9102   -2.0693   -0.3416 H   0  0  0  0  0  0  0  0  0  0  0  0
   -1.1234    1.0895   -0.2436 H   0  0  0  0  0  0  0  0  0  0  0  0
   -0.5941   -1.1764    1.6622 H   0  0  0  0  0  0  0  0  0  0  0  0
   -2.1753   -2.3394   -2.1040 H   0  0  0  0  0  0  0  0  0  0  0  0
   -3.5209   -1.2793   -2.5629 H   0  0  0  0  0  0  0  0  0  0  0  0
    0.5464   -3.5049   -0.8606 H   0  0  0  0  0  0  0  0  0  0  0  0
    3.5789   -3.9455   -1.5493 H   0  0  0  0  0  0  0  0  0  0  0  0
    0.8962    0.7640    2.4902 H   0  0  0  0  0  0  0  0  0  0  0  0
    1.2612   -1.9208    1.0918 H   0  0  0  0  0  0  0  0  0  0  0  0
    1.8086   -1.8939   -1.9125 H   0  0  0  0  0  0  0  0  0  0  0  0
    1.3515    0.7983    0.1594 H   0  0  0  0  0  0  0  0  0  0  0  0
    3.7264   -2.6502    0.3726 H   0  0  0  0  0  0  0  0  0  0  0  0
    4.5375   -0.7202   -1.7617 H   0  0  0  0  0  0  0  0  0  0  0  0
    3.3381   -0.6132    2.0033 H   0  0  0  0  0  0  0  0  0  0  0  0
    3.1233    1.1272    1.8529 H   0  0  0  0  0  0  0  0  0  0  0  0
    6.4447    1.6167   -2.3507 H   0  0  0  0  0  0  0  0  0  0  0  0
    7.4150    3.6848    1.5174 H   0  0  0  0  0  0  0  0  0  0  0  0
    9.3449    1.0699   -1.5516 H   0  0  0  0  0  0  0  0  0  0  0  0
    8.4285   -2.9138    0.2098 H   0  0  0  0  0  0  0  0  0  0  0  0
    6.6104   -0.3071   -1.1123 H   0  0  0  0  0  0  0  0  0  0  0  0
    4.9048    1.8909    0.0223 H   0  0  0  0  0  0  0  0  0  0  0  0
    6.8930    0.4689    1.8391 H   0  0  0  0  0  0  0  0  0  0  0  0
    6.8786    3.5164   -0.6989 H   0  0  0  0  0  0  0  0  0  0  0  0
    9.1012    2.6782    0.0373 H   0  0  0  0  0  0  0  0  0  0  0  0
    8.5145   -1.3967    1.9323 H   0  0  0  0  0  0  0  0  0  0  0  0
    6.8820   -1.9759    1.5213 H   0  0  0  0  0  0  0  0  0  0  0  0
  1  9  1  0
  1 11  1  0
  2  7  1  0
  3  8  1  0
  4 10  1  0
  5 11  1  0
  6 12  1  0
  7  8  1  0
  7  9  1  0
  8 10  1  0
  9 12  1  0
 10 11  1  0
 13 20  1  0
 13 22  1  0
 14 19  1  0
 15 21  1  0
 16 22  1  0
 17 23  1  0
 18 19  1  0
 18 20  1  0
 19 21  1  0
 20 23  1  0
 21 22  1  0
 24 31  1  0
 24 33  1  0
 25 30  1  0
 26 32  1  0
 27 33  1  0
 28 34  1  0
 29 30  1  0
 29 31  1  0
 30 32  1  0
 31 34  1  0
 32 33  1  0
 35 42  1  0
 35 44  1  0
 36 41  1  0
 37 43  1  0
 38 44  1  0
 39 45  1  0
 40 41  1  0
 40 42  1  0
 41 43  1  0
 42 45  1  0
 43 44  1  0
  5 18  1  0
 16 29  1  0
 27 40  1  0
  2 46  1  0
  3 47  1  0
  4 48  1  0
  6 49  1  0
  7 50  1  1
  8 51  1  6
  9 52  1  6
 10 53  1  1
 11 54  1  6
 12 55  1  0
 12 56  1  0
 14 57  1  0
 15 58  1  0
 17 59  1  0
 18 60  1  6
 19 61  1  1
 20 62  1  6
 21 63  1  6
 22 64  1  1
 23 65  1  0
 23 66  1  0
 25 67  1  0
 26 68  1  0
 28 69  1  0
 29 70  1  1
 30 71  1  6
 31 72  1  6
 32 73  1  1
 33 74  1  6
 34 75  1  0
 34 76  1  0
 36 77  1  0
 37 78  1  0
 38 79  1  0
 39 80  1  0
 40 81  1  6
 41 82  1  1
 42 83  1  1
 43 84  1  6
 44 85  1  1
 45 86  1  0
 45 87  1  0
M  END
>  <PUBCHEM_COMPOUND_CID>  (1) 
5793

>  <PUBCHEM_CONFORMER_RMSD>  (1) 
0.6

>  <PUBCHEM_CONFORMER_DIVERSEORDER>  (1) 
1
8
4
3
6
2
7
5

>  <PUBCHEM_MMFF94_PARTIAL_CHARGES>  (1) 
17
1 -0.56
10 0.28
11 0.56
12 0.28
2 -0.68
20 0.4
21 0.4
22 0.4
23 0.4
24 0.4
3 -0.68
4 -0.68
5 -0.68
6 -0.68
7 0.28
8 0.28
9 0.28

>  <PUBCHEM_EFFECTIVE_ROTOR_COUNT>  (1) 
2.2

>  <PUBCHEM_PHARMACOPHORE_FEATURES>  (1) 
12
1 1 acceptor
1 2 acceptor
1 2 donor
1 3 acceptor
1 3 donor
1 4 acceptor
1 4 donor
1 5 acceptor
1 5 donor
1 6 acceptor
1 6 donor
6 1 7 8 9 10 11 rings

>  <PUBCHEM_HEAVY_ATOM_COUNT>  (1) 
12

>  <PUBCHEM_ATOM_DEF_STEREO_COUNT>  (1) 
4

>  <PUBCHEM_ATOM_UDEF_STEREO_COUNT>  (1) 
1

>  <PUBCHEM_BOND_DEF_STEREO_COUNT>  (1) 
0

>  <PUBCHEM_BOND_UDEF_STEREO_COUNT>  (1) 
0

>  <PUBCHEM_ISOTOPIC_ATOM_COUNT>  (1) 
0

>  <PUBCHEM_COMPONENT_COUNT>  (1) 
1

>  <PUBCHEM_CACTVS_TAUTO_COUNT>  (1) 
1

>  <PUBCHEM_CONFORMER_ID>  (1) 
000016A100000001

>  <PUBCHEM_MMFF94_ENERGY>  (1) 
27.5671

>  <PUBCHEM_FEATURE_SELFOVERLAP>  (1) 
60.963

>  <PUBCHEM_SHAPE_FINGERPRINT>  (1) 
12423570 1 11440868573817502106
16945 1 18338792415782022985
18185500 45 18410572903041433514
193761 8 18122905588311858698
21040471 1 18339079405607498497
23235685 24 18410853278337711372
2334 1 17834396004942031816
23402655 69 18267854013893658469
23552423 10 18120089751981225934
23559900 14 18270413797459679636
241688 4 17978794506319527824
2748010 2 18194117417474202524
5084963 1 17769667725561077874
5255222 1 18335976562245387725
528862 383 18261390018417527851
528886 8 18411416206831951673
53812653 166 18412823616180991792
63268167 104 18410859824078808769
66348 1 18411141294496697448

>  <PUBCHEM_SHAPE_MULTIPOLES>  (1) 
211.74
3.59
2.42
0.65
1.75
0.15
0
-0.75
-0.13
-0.7
0.1
-0.03
0.03
-0.1

>  <PUBCHEM_SHAPE_SELFOVERLAP>  (1) 
421.584

>  <PUBCHEM_SHAPE_VOLUME>  (1) 
123.3

>  <PUBCHEM_COORDINATE_TYPE>  (1) 
2
5
10

>  <NOTE>  (1) 
Short representative glucan fragment only, not an entire polysaccharide. RDKit ETKDGv3/MMFF illustrative conformer. Links: beta 1-4

$$$$
