galactose
     RDKit          3D

 24 24  0  0  0  0  0  0  0  0999 V2000
   -2.6166    0.7337    0.1278 C   0  0  0  0  0  0  0  0  0  0  0  0
   -1.2081    0.4181   -0.3818 C   0  0  2  0  0  0  0  0  0  0  0  0
   -0.7377   -0.9825    0.0628 C   0  0  1  0  0  0  0  0  0  0  0  0
    0.7073   -1.2129   -0.3876 C   0  0  1  0  0  0  0  0  0  0  0  0
    1.6029   -0.0634    0.0725 C   0  0  2  0  0  0  0  0  0  0  0  0
    1.0046    1.2705   -0.3952 C   0  0  0  0  0  0  0  0  0  0  0  0
   -0.3174    1.4512    0.0819 O   0  0  0  0  0  0  0  0  0  0  0  0
    1.8136    2.3202    0.1197 O   0  0  0  0  0  0  0  0  0  0  0  0
    2.9233   -0.2565   -0.4629 O   0  0  0  0  0  0  0  0  0  0  0  0
    1.1878   -2.4486    0.1683 O   0  0  0  0  0  0  0  0  0  0  0  0
   -0.7877   -1.1128    1.4930 O   0  0  0  0  0  0  0  0  0  0  0  0
   -3.5722   -0.1169   -0.4983 O   0  0  0  0  0  0  0  0  0  0  0  0
   -2.8775    1.7721   -0.1047 H   0  0  0  0  0  0  0  0  0  0  0  0
   -2.6855    0.6199    1.2150 H   0  0  0  0  0  0  0  0  0  0  0  0
   -1.2237    0.4497   -1.4798 H   0  0  0  0  0  0  0  0  0  0  0  0
   -1.3885   -1.7638   -0.3453 H   0  0  0  0  0  0  0  0  0  0  0  0
    0.7540   -1.3147   -1.4787 H   0  0  0  0  0  0  0  0  0  0  0  0
    1.7096   -0.0781    1.1642 H   0  0  0  0  0  0  0  0  0  0  0  0
    1.0291    1.3519   -1.4887 H   0  0  0  0  0  0  0  0  0  0  0  0
    1.3162    3.1285   -0.0930 H   0  0  0  0  0  0  0  0  0  0  0  0
    3.4091    0.5586   -0.2213 H   0  0  0  0  0  0  0  0  0  0  0  0
    2.1520   -2.4441   -0.0024 H   0  0  0  0  0  0  0  0  0  0  0  0
   -0.2971   -1.9387    1.6851 H   0  0  0  0  0  0  0  0  0  0  0  0
   -4.4189    0.0362   -0.0428 H   0  0  0  0  0  0  0  0  0  0  0  0
  1  2  1  0
  2  3  1  0
  3  4  1  0
  4  5  1  0
  5  6  1  0
  6  7  1  0
  6  8  1  0
  5  9  1  0
  4 10  1  0
  3 11  1  0
  1 12  1  0
  7  2  1  0
  1 13  1  0
  1 14  1  0
  2 15  1  1
  3 16  1  1
  4 17  1  1
  5 18  1  6
  6 19  1  0
  8 20  1  0
  9 21  1  0
 10 22  1  0
 11 23  1  0
 12 24  1  0
M  END
$$$$
