5793
  -OEChem-10022604493D

 24 24  0     1  0  0  0  0  0999 V2000
   -0.6700   -1.1556   -0.2653 O   0  0  0  0  0  0  0  0  0  0  0  0
   -0.8839    2.4444    0.3732 O   0  0  0  0  0  0  0  0  0  0  0  0
    1.8592    2.0743   -0.4597 O   0  0  0  0  0  0  0  0  0  0  0  0
    2.8641   -0.5470    0.4345 O   0  0  0  0  0  0  0  0  0  0  0  0
    1.1197   -2.6522   -0.2960 O   0  0  0  0  0  0  0  0  0  0  0  0
   -3.3730   -0.9733    0.2003 O   0  0  0  0  0  0  0  0  0  0  0  0
   -0.3741    1.2496   -0.2130 C   0  0  1  0  0  0  0  0  0  0  0  0
    1.0872    1.0685    0.1982 C   0  0  1  0  0  0  0  0  0  0  0  0
   -1.2193    0.0596    0.2472 C   0  0  1  0  0  0  0  0  0  0  0  0
    1.6067   -0.3132   -0.1994 C   0  0  2  0  0  0  0  0  0  0  0  0
    0.6403   -1.4161    0.2325 C   0  0  1  0  0  0  0  0  0  0  0  0
   -2.6569    0.1612   -0.2526 C   0  0  0  0  0  0  0  0  0  0  0  0
   -0.4343    1.3672   -1.3019 H   0  0  0  0  0  0  0  0  0  0  0  0
    1.2162    1.2340    1.2749 H   0  0  0  0  0  0  0  0  0  0  0  0
   -1.2449   -0.0052    1.3435 H   0  0  0  0  0  0  0  0  0  0  0  0
    1.7857   -0.3456   -1.2809 H   0  0  0  0  0  0  0  0  0  0  0  0
    0.6063   -1.5294    1.3222 H   0  0  0  0  0  0  0  0  0  0  0  0
   -2.7016    0.1695   -1.3468 H   0  0  0  0  0  0  0  0  0  0  0  0
   -3.1554    1.0574    0.1276 H   0  0  0  0  0  0  0  0  0  0  0  0
   -0.8412    2.3466    1.3397 H   0  0  0  0  0  0  0  0  0  0  0  0
    1.4963    2.9377   -0.1976 H   0  0  0  0  0  0  0  0  0  0  0  0
    2.7268   -0.5155    1.3968 H   0  0  0  0  0  0  0  0  0  0  0  0
    1.4785   -2.4903   -1.1843 H   0  0  0  0  0  0  0  0  0  0  0  0
   -2.9206   -1.7630   -0.1426 H   0  0  0  0  0  0  0  0  0  0  0  0
  1  9  1  0  0  0  0
  1 11  1  0  0  0  0
  2  7  1  0  0  0  0
  2 20  1  0  0  0  0
  3  8  1  0  0  0  0
  3 21  1  0  0  0  0
  4 10  1  0  0  0  0
  4 22  1  0  0  0  0
  5 11  1  0  0  0  0
  5 23  1  0  0  0  0
  6 12  1  0  0  0  0
  6 24  1  0  0  0  0
  7  8  1  0  0  0  0
  7  9  1  0  0  0  0
  7 13  1  0  0  0  0
  8 10  1  0  0  0  0
  8 14  1  0  0  0  0
  9 12  1  0  0  0  0
  9 15  1  0  0  0  0
 10 11  1  0  0  0  0
 10 16  1  0  0  0  0
 11 17  1  0  0  0  0
 12 18  1  0  0  0  0
 12 19  1  0  0  0  0
M  END
> <PUBCHEM_COMPOUND_CID>
5793

> <PUBCHEM_CONFORMER_RMSD>
0.6

> <PUBCHEM_CONFORMER_DIVERSEORDER>
1
8
4
3
6
2
7
5

> <PUBCHEM_MMFF94_PARTIAL_CHARGES>
17
1 -0.56
10 0.28
11 0.56
12 0.28
2 -0.68
20 0.4
21 0.4
22 0.4
23 0.4
24 0.4
3 -0.68
4 -0.68
5 -0.68
6 -0.68
7 0.28
8 0.28
9 0.28

> <PUBCHEM_EFFECTIVE_ROTOR_COUNT>
2.2

> <PUBCHEM_PHARMACOPHORE_FEATURES>
12
1 1 acceptor
1 2 acceptor
1 2 donor
1 3 acceptor
1 3 donor
1 4 acceptor
1 4 donor
1 5 acceptor
1 5 donor
1 6 acceptor
1 6 donor
6 1 7 8 9 10 11 rings

> <PUBCHEM_HEAVY_ATOM_COUNT>
12

> <PUBCHEM_ATOM_DEF_STEREO_COUNT>
4

> <PUBCHEM_ATOM_UDEF_STEREO_COUNT>
1

> <PUBCHEM_BOND_DEF_STEREO_COUNT>
0

> <PUBCHEM_BOND_UDEF_STEREO_COUNT>
0

> <PUBCHEM_ISOTOPIC_ATOM_COUNT>
0

> <PUBCHEM_COMPONENT_COUNT>
1

> <PUBCHEM_CACTVS_TAUTO_COUNT>
1

> <PUBCHEM_CONFORMER_ID>
000016A100000001

> <PUBCHEM_MMFF94_ENERGY>
27.5671

> <PUBCHEM_FEATURE_SELFOVERLAP>
60.963

> <PUBCHEM_SHAPE_FINGERPRINT>
12423570 1 11440868573817502106
16945 1 18338792415782022985
18185500 45 18410572903041433514
193761 8 18122905588311858698
21040471 1 18339079405607498497
23235685 24 18410853278337711372
2334 1 17834396004942031816
23402655 69 18267854013893658469
23552423 10 18120089751981225934
23559900 14 18270413797459679636
241688 4 17978794506319527824
2748010 2 18194117417474202524
5084963 1 17769667725561077874
5255222 1 18335976562245387725
528862 383 18261390018417527851
528886 8 18411416206831951673
53812653 166 18412823616180991792
63268167 104 18410859824078808769
66348 1 18411141294496697448

> <PUBCHEM_SHAPE_MULTIPOLES>
211.74
3.59
2.42
0.65
1.75
0.15
0
-0.75
-0.13
-0.7
0.1
-0.03
0.03
-0.1

> <PUBCHEM_SHAPE_SELFOVERLAP>
421.584

> <PUBCHEM_SHAPE_VOLUME>
123.3

> <PUBCHEM_COORDINATE_TYPE>
2
5
10

$$$$
