glycogen-fragment
     RDKit          3D

108112  0  0  1  0  0  0  0  0999 V2000
   -4.9717   -1.2947   -0.6401 O   0  0  0  0  0  0  0  0  0  0  0  0
   -7.9971   -3.3808   -0.6779 O   0  0  0  0  0  0  0  0  0  0  0  0
   -6.2558   -4.7206   -2.5895 O   0  0  0  0  0  0  0  0  0  0  0  0
   -4.1792   -2.4572   -3.3694 O   0  0  0  0  0  0  0  0  0  0  0  0
   -2.7598   -1.7246   -1.2263 O   0  0  0  0  0  0  0  0  0  0  0  0
   -7.5049   -2.2120    1.8705 O   0  0  0  0  0  0  0  0  0  0  0  0
   -6.5729   -3.2186   -0.6888 C   0  0  1  0  0  0  0  0  0  0  0  0
   -6.0069   -3.3910   -2.1041 C   0  0  1  0  0  0  0  0  0  0  0  0
   -6.2158   -1.8104   -0.1549 C   0  0  1  0  0  0  0  0  0  0  0  0
   -4.4901   -3.1389   -2.1353 C   0  0  2  0  0  0  0  0  0  0  0  0
   -4.0233   -2.3204   -0.9126 C   0  0  2  0  0  0  0  0  0  0  0  0
   -6.2399   -1.7740    1.3801 C   0  0  0  0  0  0  0  0  0  0  0  0
   -0.6223    0.6359    0.6660 O   0  0  0  0  0  0  0  0  0  0  0  0
   -1.6588   -3.4006    0.9304 O   0  0  0  0  0  0  0  0  0  0  0  0
    0.8573   -2.5461    1.8827 O   0  0  0  0  0  0  0  0  0  0  0  0
    1.2864   -0.4285   -0.1345 O   0  0  0  0  0  0  0  0  0  0  0  0
   -2.1028   -1.2122   -0.0504 C   0  0  1  0  0  0  0  0  0  0  0  0
   -1.0321   -2.2144    0.4038 C   0  0  1  0  0  0  0  0  0  0  0  0
   -1.4627    0.1462   -0.3941 C   0  0  1  0  0  0  0  0  0  0  0  0
   -0.1460   -1.5993    1.4898 C   0  0  2  0  0  0  0  0  0  0  0  0
    0.4373   -0.2608    1.0017 C   0  0  2  0  0  0  0  0  0  0  0  0
   -2.5408    1.2084   -0.6709 C   0  0  0  0  0  0  0  0  0  0  0  0
    4.8551    0.3788   -0.6110 O   0  0  0  0  0  0  0  0  0  0  0  0
    2.4831   -2.9981   -0.1795 O   0  0  0  0  0  0  0  0  0  0  0  0
    5.2913   -2.5817   -1.4829 O   0  0  0  0  0  0  0  0  0  0  0  0
    6.7842   -0.8668   -0.1428 O   0  0  0  0  0  0  0  0  0  0  0  0
    4.0449    2.9601    0.0921 O   0  0  0  0  0  0  0  0  0  0  0  0
    2.6771   -0.5886    0.1719 C   0  0  1  0  0  0  0  0  0  0  0  0
    3.2101   -1.8171   -0.5744 C   0  0  1  0  0  0  0  0  0  0  0  0
    3.4634    0.6428   -0.3301 C   0  0  1  0  0  0  0  0  0  0  0  0
    4.7029   -2.0244   -0.2919 C   0  0  2  0  0  0  0  0  0  0  0  0
    5.3936   -0.7077    0.1340 C   0  0  2  0  0  0  0  0  0  0  0  0
    3.3856    1.8217    0.6475 C   0  0  0  0  0  0  0  0  0  0  0  0
    8.2503    1.7630   -0.6456 O   0  0  0  0  0  0  0  0  0  0  0  0
    9.9366   -0.4805    1.6346 O   0  0  0  0  0  0  0  0  0  0  0  0
    9.1046   -0.8094   -1.9178 O   0  0  0  0  0  0  0  0  0  0  0  0
   10.0010    1.7492   -2.1047 O   0  0  0  0  0  0  0  0  0  0  0  0
    7.4399    1.8288    2.9587 O   0  0  0  0  0  0  0  0  0  0  0  0
    7.6716   -0.1919    0.7692 C   0  0  1  0  0  0  0  0  0  0  0  0
    9.0843   -0.7651    0.5186 C   0  0  1  0  0  0  0  0  0  0  0  0
    7.6429    1.3447    0.5862 C   0  0  1  0  0  0  0  0  0  0  0  0
    9.7142   -0.2117   -0.7625 C   0  0  2  0  0  0  0  0  0  0  0  0
    9.5865    1.3222   -0.8112 C   0  0  2  0  0  0  0  0  0  0  0  0
    8.2023    2.1181    1.7914 C   0  0  0  0  0  0  0  0  0  0  0  0
   -5.5424    1.8824    1.1459 O   0  0  0  0  0  0  0  0  0  0  0  0
   -7.6157    4.8962    0.4144 O   0  0  0  0  0  0  0  0  0  0  0  0
   -5.0186    5.7962   -0.2137 O   0  0  0  0  0  0  0  0  0  0  0  0
   -3.2736    3.7399    1.7355 O   0  0  0  0  0  0  0  0  0  0  0  0
   -3.4017    1.3387    0.4679 O   0  0  0  0  0  0  0  0  0  0  0  0
   -9.0297    2.5514    0.1873 O   0  0  0  0  0  0  0  0  0  0  0  0
   -6.5336    3.9787    0.2065 C   0  0  1  0  0  0  0  0  0  0  0  0
   -5.2242    4.6474    0.6275 C   0  0  1  0  0  0  0  0  0  0  0  0
   -6.7303    2.6689    0.9940 C   0  0  1  0  0  0  0  0  0  0  0  0
   -4.0311    3.6895    0.5058 C   0  0  2  0  0  0  0  0  0  0  0  0
   -4.4932    2.2360    0.2410 C   0  0  2  0  0  0  0  0  0  0  0  0
   -7.8294    1.8027    0.3619 C   0  0  0  0  0  0  0  0  0  0  0  0
   -8.2776   -3.2227    0.2474 H   0  0  0  0  0  0  0  0  0  0  0  0
   -6.0370   -4.7019   -3.5392 H   0  0  0  0  0  0  0  0  0  0  0  0
   -3.3585   -1.9595   -3.1779 H   0  0  0  0  0  0  0  0  0  0  0  0
   -7.4790   -2.0988    2.8390 H   0  0  0  0  0  0  0  0  0  0  0  0
   -6.1630   -4.0070   -0.0449 H   0  0  0  0  0  0  0  0  0  0  0  0
   -6.5379   -2.7159   -2.7873 H   0  0  0  0  0  0  0  0  0  0  0  0
   -6.9900   -1.1143   -0.5014 H   0  0  0  0  0  0  0  0  0  0  0  0
   -3.9223   -4.0757   -2.1737 H   0  0  0  0  0  0  0  0  0  0  0  0
   -3.9263   -2.9818   -0.0436 H   0  0  0  0  0  0  0  0  0  0  0  0
   -6.0518   -0.7572    1.7385 H   0  0  0  0  0  0  0  0  0  0  0  0
   -5.4583   -2.4169    1.7989 H   0  0  0  0  0  0  0  0  0  0  0  0
   -0.9552   -3.8733    1.4195 H   0  0  0  0  0  0  0  0  0  0  0  0
    1.3730   -2.7792    1.0756 H   0  0  0  0  0  0  0  0  0  0  0  0
   -2.8203   -1.0856    0.7720 H   0  0  0  0  0  0  0  0  0  0  0  0
   -0.4341   -2.5519   -0.4510 H   0  0  0  0  0  0  0  0  0  0  0  0
   -0.8626    0.0582   -1.3092 H   0  0  0  0  0  0  0  0  0  0  0  0
   -0.7600   -1.4184    2.3808 H   0  0  0  0  0  0  0  0  0  0  0  0
    0.9956    0.2136    1.8165 H   0  0  0  0  0  0  0  0  0  0  0  0
   -2.0580    2.1731   -0.8598 H   0  0  0  0  0  0  0  0  0  0  0  0
   -3.1304    0.9243   -1.5499 H   0  0  0  0  0  0  0  0  0  0  0  0
    2.8528   -3.7145   -0.7377 H   0  0  0  0  0  0  0  0  0  0  0  0
    6.1895   -2.1857   -1.5394 H   0  0  0  0  0  0  0  0  0  0  0  0
    4.7990    2.6216   -0.4294 H   0  0  0  0  0  0  0  0  0  0  0  0
    2.8239   -0.7437    1.2489 H   0  0  0  0  0  0  0  0  0  0  0  0
    3.0198   -1.7016   -1.6494 H   0  0  0  0  0  0  0  0  0  0  0  0
    3.0385    0.9827   -1.2833 H   0  0  0  0  0  0  0  0  0  0  0  0
    4.8670   -2.7773    0.4877 H   0  0  0  0  0  0  0  0  0  0  0  0
    5.2305   -0.5338    1.2054 H   0  0  0  0  0  0  0  0  0  0  0  0
    3.8894    1.5839    1.5896 H   0  0  0  0  0  0  0  0  0  0  0  0
    2.3506    2.1023    0.8602 H   0  0  0  0  0  0  0  0  0  0  0  0
   10.6566   -1.1385    1.6150 H   0  0  0  0  0  0  0  0  0  0  0  0
    9.1684   -0.1260   -2.6173 H   0  0  0  0  0  0  0  0  0  0  0  0
    9.8299    2.7068   -2.1067 H   0  0  0  0  0  0  0  0  0  0  0  0
    7.8139    2.3660    3.6801 H   0  0  0  0  0  0  0  0  0  0  0  0
    7.3686   -0.4569    1.7898 H   0  0  0  0  0  0  0  0  0  0  0  0
    9.0027   -1.8568    0.4369 H   0  0  0  0  0  0  0  0  0  0  0  0
    6.5993    1.6548    0.5045 H   0  0  0  0  0  0  0  0  0  0  0  0
   10.7776   -0.4736   -0.8119 H   0  0  0  0  0  0  0  0  0  0  0  0
   10.2387    1.7974   -0.0710 H   0  0  0  0  0  0  0  0  0  0  0  0
    9.2513    1.8865    1.9900 H   0  0  0  0  0  0  0  0  0  0  0  0
    8.1445    3.1948    1.5961 H   0  0  0  0  0  0  0  0  0  0  0  0
   -8.4383    4.3690    0.3052 H   0  0  0  0  0  0  0  0  0  0  0  0
   -5.8454    6.3135   -0.1333 H   0  0  0  0  0  0  0  0  0  0  0  0
   -2.8356    2.8676    1.8083 H   0  0  0  0  0  0  0  0  0  0  0  0
   -9.7066    1.9203   -0.1227 H   0  0  0  0  0  0  0  0  0  0  0  0
   -6.5049    3.7839   -0.8733 H   0  0  0  0  0  0  0  0  0  0  0  0
   -5.3117    5.0361    1.6496 H   0  0  0  0  0  0  0  0  0  0  0  0
   -7.0696    2.9291    2.0050 H   0  0  0  0  0  0  0  0  0  0  0  0
   -3.3398    4.0112   -0.2800 H   0  0  0  0  0  0  0  0  0  0  0  0
   -4.8692    2.1092   -0.7821 H   0  0  0  0  0  0  0  0  0  0  0  0
   -8.0392    0.9372    0.9996 H   0  0  0  0  0  0  0  0  0  0  0  0
   -7.5076    1.4225   -0.6137 H   0  0  0  0  0  0  0  0  0  0  0  0
  1  9  1  0
  1 11  1  0
  2  7  1  0
  3  8  1  0
  4 10  1  0
  5 11  1  0
  6 12  1  0
  7  8  1  0
  7  9  1  0
  8 10  1  0
  9 12  1  0
 10 11  1  0
 13 19  1  0
 13 21  1  0
 14 18  1  0
 15 20  1  0
 16 21  1  0
 17 18  1  0
 17 19  1  0
 18 20  1  0
 19 22  1  0
 20 21  1  0
 23 30  1  0
 23 32  1  0
 24 29  1  0
 25 31  1  0
 26 32  1  0
 27 33  1  0
 28 29  1  0
 28 30  1  0
 29 31  1  0
 30 33  1  0
 31 32  1  0
 34 41  1  0
 34 43  1  0
 35 40  1  0
 36 42  1  0
 37 43  1  0
 38 44  1  0
 39 40  1  0
 39 41  1  0
 40 42  1  0
 41 44  1  0
 42 43  1  0
 45 53  1  0
 45 55  1  0
 46 51  1  0
 47 52  1  0
 48 54  1  0
 49 55  1  0
 50 56  1  0
 51 52  1  0
 51 53  1  0
 52 54  1  0
 53 56  1  0
 54 55  1  0
  5 17  1  0
 16 28  1  0
 26 39  1  0
 49 22  1  0
  2 57  1  0
  3 58  1  0
  4 59  1  0
  6 60  1  0
  7 61  1  1
  8 62  1  6
  9 63  1  6
 10 64  1  6
 11 65  1  1
 12 66  1  0
 12 67  1  0
 14 68  1  0
 15 69  1  0
 17 70  1  1
 18 71  1  6
 19 72  1  6
 20 73  1  1
 21 74  1  1
 22 75  1  0
 22 76  1  0
 24 77  1  0
 25 78  1  0
 27 79  1  0
 28 80  1  1
 29 81  1  6
 30 82  1  6
 31 83  1  1
 32 84  1  1
 33 85  1  0
 33 86  1  0
 35 87  1  0
 36 88  1  0
 37 89  1  0
 38 90  1  0
 39 91  1  1
 40 92  1  6
 41 93  1  6
 42 94  1  1
 43 95  1  1
 44 96  1  0
 44 97  1  0
 46 98  1  0
 47 99  1  0
 48100  1  0
 50101  1  0
 51102  1  6
 52103  1  1
 53104  1  1
 54105  1  6
 55106  1  6
 56107  1  0
 56108  1  0
M  END
>  <PUBCHEM_COMPOUND_CID>  (1) 
5793

>  <PUBCHEM_CONFORMER_RMSD>  (1) 
0.6

>  <PUBCHEM_CONFORMER_DIVERSEORDER>  (1) 
1
8
4
3
6
2
7
5

>  <PUBCHEM_MMFF94_PARTIAL_CHARGES>  (1) 
17
1 -0.56
10 0.28
11 0.56
12 0.28
2 -0.68
20 0.4
21 0.4
22 0.4
23 0.4
24 0.4
3 -0.68
4 -0.68
5 -0.68
6 -0.68
7 0.28
8 0.28
9 0.28

>  <PUBCHEM_EFFECTIVE_ROTOR_COUNT>  (1) 
2.2

>  <PUBCHEM_PHARMACOPHORE_FEATURES>  (1) 
12
1 1 acceptor
1 2 acceptor
1 2 donor
1 3 acceptor
1 3 donor
1 4 acceptor
1 4 donor
1 5 acceptor
1 5 donor
1 6 acceptor
1 6 donor
6 1 7 8 9 10 11 rings

>  <PUBCHEM_HEAVY_ATOM_COUNT>  (1) 
12

>  <PUBCHEM_ATOM_DEF_STEREO_COUNT>  (1) 
4

>  <PUBCHEM_ATOM_UDEF_STEREO_COUNT>  (1) 
1

>  <PUBCHEM_BOND_DEF_STEREO_COUNT>  (1) 
0

>  <PUBCHEM_BOND_UDEF_STEREO_COUNT>  (1) 
0

>  <PUBCHEM_ISOTOPIC_ATOM_COUNT>  (1) 
0

>  <PUBCHEM_COMPONENT_COUNT>  (1) 
1

>  <PUBCHEM_CACTVS_TAUTO_COUNT>  (1) 
1

>  <PUBCHEM_CONFORMER_ID>  (1) 
000016A100000001

>  <PUBCHEM_MMFF94_ENERGY>  (1) 
27.5671

>  <PUBCHEM_FEATURE_SELFOVERLAP>  (1) 
60.963

>  <PUBCHEM_SHAPE_FINGERPRINT>  (1) 
12423570 1 11440868573817502106
16945 1 18338792415782022985
18185500 45 18410572903041433514
193761 8 18122905588311858698
21040471 1 18339079405607498497
23235685 24 18410853278337711372
2334 1 17834396004942031816
23402655 69 18267854013893658469
23552423 10 18120089751981225934
23559900 14 18270413797459679636
241688 4 17978794506319527824
2748010 2 18194117417474202524
5084963 1 17769667725561077874
5255222 1 18335976562245387725
528862 383 18261390018417527851
528886 8 18411416206831951673
53812653 166 18412823616180991792
63268167 104 18410859824078808769
66348 1 18411141294496697448

>  <PUBCHEM_SHAPE_MULTIPOLES>  (1) 
211.74
3.59
2.42
0.65
1.75
0.15
0
-0.75
-0.13
-0.7
0.1
-0.03
0.03
-0.1

>  <PUBCHEM_SHAPE_SELFOVERLAP>  (1) 
421.584

>  <PUBCHEM_SHAPE_VOLUME>  (1) 
123.3

>  <PUBCHEM_COORDINATE_TYPE>  (1) 
2
5
10

>  <NOTE>  (1) 
Short representative glucan fragment only, not an entire polysaccharide. RDKit ETKDGv3/MMFF illustrative conformer. Links: alpha 1-4 and alpha 1-6 branch

$$$$
