6134
  -OEChem-10022604493D

 45 46  0     1  0  0  0  0  0999 V2000
   -0.0350    0.8331   -0.7473 O   0  0  0  0  0  0  0  0  0  0  0  0
   -1.3705   -0.7432    0.3392 O   0  0  0  0  0  0  0  0  0  0  0  0
    3.4328    0.7304    0.4265 O   0  0  0  0  0  0  0  0  0  0  0  0
    0.7139   -1.9346   -1.1135 O   0  0  0  0  0  0  0  0  0  0  0  0
   -2.1488    2.7211   -0.5584 O   0  0  0  0  0  0  0  0  0  0  0  0
   -4.7660    1.4970   -0.4225 O   0  0  0  0  0  0  0  0  0  0  0  0
   -4.0159   -1.1703   -0.6500 O   0  0  0  0  0  0  0  0  0  0  0  0
    3.5660   -2.1467   -1.8216 O   0  0  0  0  0  0  0  0  0  0  0  0
    5.2110   -0.7125   -0.0203 O   0  0  0  0  0  0  0  0  0  0  0  0
    2.8273    3.3161    1.1362 O   0  0  0  0  0  0  0  0  0  0  0  0
   -1.2991   -2.9249    2.0051 O   0  0  0  0  0  0  0  0  0  0  0  0
    1.1471    0.2410   -0.2151 C   0  0  1  0  0  0  0  0  0  0  0  0
    1.6399   -0.8483   -1.1678 C   0  0  1  0  0  0  0  0  0  0  0  0
   -1.1463    0.6504    0.1294 C   0  0  2  0  0  0  0  0  0  0  0  0
    2.2142    1.3220   -0.0278 C   0  0  1  0  0  0  0  0  0  0  0  0
   -2.3667    1.3109   -0.5156 C   0  0  1  0  0  0  0  0  0  0  0  0
   -3.6301    1.0216    0.2946 C   0  0  2  0  0  0  0  0  0  0  0  0
   -3.7725   -0.4748    0.5744 C   0  0  2  0  0  0  0  0  0  0  0  0
    3.0301   -1.3442   -0.7698 C   0  0  2  0  0  0  0  0  0  0  0  0
   -2.4815   -1.0095    1.2043 C   0  0  1  0  0  0  0  0  0  0  0  0
    3.9869   -0.1778   -0.5226 C   0  0  1  0  0  0  0  0  0  0  0  0
    1.7920    2.3588    1.0086 C   0  0  0  0  0  0  0  0  0  0  0  0
   -2.5288   -2.5157    1.4338 C   0  0  0  0  0  0  0  0  0  0  0  0
    0.9620   -0.2277    0.7631 H   0  0  0  0  0  0  0  0  0  0  0  0
    1.6416   -0.4919   -2.2053 H   0  0  0  0  0  0  0  0  0  0  0  0
   -0.9157    1.1373    1.0865 H   0  0  0  0  0  0  0  0  0  0  0  0
    2.4109    1.8465   -0.9728 H   0  0  0  0  0  0  0  0  0  0  0  0
   -2.4920    0.9803   -1.5537 H   0  0  0  0  0  0  0  0  0  0  0  0
   -3.5982    1.5719    1.2434 H   0  0  0  0  0  0  0  0  0  0  0  0
   -4.6371   -0.6582    1.2211 H   0  0  0  0  0  0  0  0  0  0  0  0
   -2.2863   -0.5127    2.1637 H   0  0  0  0  0  0  0  0  0  0  0  0
    2.9587   -1.9846    0.1182 H   0  0  0  0  0  0  0  0  0  0  0  0
    4.2172    0.3468   -1.4586 H   0  0  0  0  0  0  0  0  0  0  0  0
    1.6335    1.9035    1.9918 H   0  0  0  0  0  0  0  0  0  0  0  0
    0.8802    2.8833    0.7099 H   0  0  0  0  0  0  0  0  0  0  0  0
   -2.6532   -3.0698    0.4979 H   0  0  0  0  0  0  0  0  0  0  0  0
   -3.3396   -2.7883    2.1157 H   0  0  0  0  0  0  0  0  0  0  0  0
   -0.1549   -1.5917   -1.3841 H   0  0  0  0  0  0  0  0  0  0  0  0
   -1.3245    2.8731   -1.0517 H   0  0  0  0  0  0  0  0  0  0  0  0
   -4.6261    2.4439   -0.5954 H   0  0  0  0  0  0  0  0  0  0  0  0
   -3.2016   -1.1493   -1.1803 H   0  0  0  0  0  0  0  0  0  0  0  0
    4.4519   -2.4367   -1.5442 H   0  0  0  0  0  0  0  0  0  0  0  0
    5.9096   -0.0690   -0.2284 H   0  0  0  0  0  0  0  0  0  0  0  0
    3.6348    2.8428    1.4004 H   0  0  0  0  0  0  0  0  0  0  0  0
   -0.5896   -2.6668    1.3918 H   0  0  0  0  0  0  0  0  0  0  0  0
  1 12  1  0  0  0  0
  1 14  1  0  0  0  0
  2 14  1  0  0  0  0
  2 20  1  0  0  0  0
  3 15  1  0  0  0  0
  3 21  1  0  0  0  0
  4 13  1  0  0  0  0
  4 38  1  0  0  0  0
  5 16  1  0  0  0  0
  5 39  1  0  0  0  0
  6 17  1  0  0  0  0
  6 40  1  0  0  0  0
  7 18  1  0  0  0  0
  7 41  1  0  0  0  0
  8 19  1  0  0  0  0
  8 42  1  0  0  0  0
  9 21  1  0  0  0  0
  9 43  1  0  0  0  0
 10 22  1  0  0  0  0
 10 44  1  0  0  0  0
 11 23  1  0  0  0  0
 11 45  1  0  0  0  0
 12 13  1  0  0  0  0
 12 15  1  0  0  0  0
 12 24  1  0  0  0  0
 13 19  1  0  0  0  0
 13 25  1  0  0  0  0
 14 16  1  0  0  0  0
 14 26  1  0  0  0  0
 15 22  1  0  0  0  0
 15 27  1  0  0  0  0
 16 17  1  0  0  0  0
 16 28  1  0  0  0  0
 17 18  1  0  0  0  0
 17 29  1  0  0  0  0
 18 20  1  0  0  0  0
 18 30  1  0  0  0  0
 19 21  1  0  0  0  0
 19 32  1  0  0  0  0
 20 23  1  0  0  0  0
 20 31  1  0  0  0  0
 21 33  1  0  0  0  0
 22 34  1  0  0  0  0
 22 35  1  0  0  0  0
 23 36  1  0  0  0  0
 23 37  1  0  0  0  0
M  END
> <PUBCHEM_COMPOUND_CID>
6134

> <PUBCHEM_CONFORMER_RMSD>
0.8

> <PUBCHEM_CONFORMER_DIVERSEORDER>
1
61
21
62
41
34
80
77
27
47
74
63
83
8
50
32
79
49
28
48
76
78
73
54
25
14
52
86
12
37
65
59
69
66
57
87
33
85
7
84
72
89
53
64
43
22
60
18
70
30
68
75
16
56
2
81
58
44
90
39
4
15
67
26
20
46
6
24
35
88
51
38
3
5
13
10
55
42
45
23
31
29
36
17
9
40
71
11
19
82

> <PUBCHEM_MMFF94_PARTIAL_CHARGES>
31
1 -0.56
10 -0.68
11 -0.68
12 0.28
13 0.28
14 0.56
15 0.28
16 0.28
17 0.28
18 0.28
19 0.28
2 -0.56
20 0.28
21 0.56
22 0.28
23 0.28
3 -0.56
38 0.4
39 0.4
4 -0.68
40 0.4
41 0.4
42 0.4
43 0.4
44 0.4
45 0.4
5 -0.68
6 -0.68
7 -0.68
8 -0.68
9 -0.68

> <PUBCHEM_EFFECTIVE_ROTOR_COUNT>
6.4

> <PUBCHEM_PHARMACOPHORE_FEATURES>
21
1 1 acceptor
1 10 acceptor
1 10 donor
1 11 acceptor
1 11 donor
1 2 acceptor
1 3 acceptor
1 4 acceptor
1 4 donor
1 5 acceptor
1 5 donor
1 6 acceptor
1 6 donor
1 7 acceptor
1 7 donor
1 8 acceptor
1 8 donor
1 9 acceptor
1 9 donor
6 2 14 16 17 18 20 rings
6 3 12 13 15 19 21 rings

> <PUBCHEM_HEAVY_ATOM_COUNT>
23

> <PUBCHEM_ATOM_DEF_STEREO_COUNT>
10

> <PUBCHEM_ATOM_UDEF_STEREO_COUNT>
0

> <PUBCHEM_BOND_DEF_STEREO_COUNT>
0

> <PUBCHEM_BOND_UDEF_STEREO_COUNT>
0

> <PUBCHEM_ISOTOPIC_ATOM_COUNT>
0

> <PUBCHEM_COMPONENT_COUNT>
1

> <PUBCHEM_CACTVS_TAUTO_COUNT>
1

> <PUBCHEM_CONFORMER_ID>
000017F600000001

> <PUBCHEM_MMFF94_ENERGY>
63.9739

> <PUBCHEM_FEATURE_SELFOVERLAP>
106.725

> <PUBCHEM_SHAPE_FINGERPRINT>
10366900 7 18340483456181109621
10608611 8 18411694413301672152
11471102 20 18202560670696361926
11552529 35 17915467318327820395
11595378 159 16732974315099726725
12236239 1 15625936517393923871
12403259 415 18334289821836818293
12500047 106 18260827064311745935
12633257 1 18410003338643159298
12670545 47 18339921618645355857
12788726 201 17983012242083492298
12969540 114 17969763251702120031
13134695 92 17632853119016902448
13140716 1 18338789130406367960
13402501 40 18410573972266555758
13544592 145 18410014303821356747
13583140 156 18271807989906822622
14178342 30 17968368065076305722
14223421 5 18266456688310047618
14866123 147 16252791967844457682
15219456 202 18411979156806523958
15295992 7 18272650177374907729
18186145 218 18340480072031762305
18219364 16 17987231325517401072
19049666 15 18339077090509427674
20510252 161 18335984152027794421
20645477 56 18333735702204028631
20645477 70 17846782884366781598
20681677 76 18270675497230338427
21033648 29 18261381218562879477
221357 26 18200026236143964165
23175994 123 18059581239139780284
23557571 272 18043250343425415387
23559900 14 18334579048933839278
2748010 2 18268135647140366020
3524813 1 18337386054558445309
49207404 50 18197211670875399936
495365 180 17988627623537749608
5104073 3 18410011069684681434
6049 1 18339926038219457616
633830 44 18194672671352697053
7399639 24 17837204149117983538
7808743 9 18113622325929292828
81228 2 18041558169576923251
8809292 202 18408324367408317442
9709674 26 18339357564943666991

> <PUBCHEM_SHAPE_MULTIPOLES>
408.77
8.72
3.09
1.3
1.41
0.53
0.24
-0.76
-0.54
0.11
0.94
-0.09
-0.43
2.57

> <PUBCHEM_SHAPE_SELFOVERLAP>
837.42

> <PUBCHEM_SHAPE_VOLUME>
230.2

> <PUBCHEM_COORDINATE_TYPE>
2
5
10

$$$$
