maltose
     RDKit          3D

 45 46  0  0  0  0  0  0  0  0999 V2000
   -2.6450    2.2189   -0.7972 C   0  0  0  0  0  0  0  0  0  0  0  0
   -2.8472    0.6975   -0.8587 C   0  0  2  0  0  0  0  0  0  0  0  0
   -3.6670    0.2009    0.3509 C   0  0  2  0  0  0  0  0  0  0  0  0
   -3.4453   -1.3006    0.5066 C   0  0  1  0  0  0  0  0  0  0  0  0
   -1.9639   -1.5907    0.7806 C   0  0  2  0  0  0  0  0  0  0  0  0
   -1.0567   -0.4651    0.2179 C   0  0  2  0  0  0  0  0  0  0  0  0
   -1.5881    0.0197   -1.0115 O   0  0  0  0  0  0  0  0  0  0  0  0
    0.2472   -1.0233    0.0159 O   0  0  0  0  0  0  0  0  0  0  0  0
    1.2339   -0.0430   -0.3835 C   0  0  2  0  0  0  0  0  0  0  0  0
    2.3864   -0.8101   -1.0710 C   0  0  2  0  0  0  0  0  0  0  0  0
    3.4763   -1.0929   -0.1754 O   0  0  0  0  0  0  0  0  0  0  0  0
    4.0849    0.0314    0.4401 C   0  0  0  0  0  0  0  0  0  0  0  0
    3.1421    1.2253    0.6789 C   0  0  1  0  0  0  0  0  0  0  0  0
    1.7143    0.7261    0.8594 C   0  0  1  0  0  0  0  0  0  0  0  0
    0.8554    1.8567    1.0958 O   0  0  0  0  0  0  0  0  0  0  0  0
    3.5262    1.9807    1.8406 O   0  0  0  0  0  0  0  0  0  0  0  0
    4.5430   -0.4085    1.7179 O   0  0  0  0  0  0  0  0  0  0  0  0
    2.9073   -0.1123   -2.3387 C   0  0  0  0  0  0  0  0  0  0  0  0
    3.9422   -0.8904   -2.9402 O   0  0  0  0  0  0  0  0  0  0  0  0
   -1.6563   -2.8711    0.1963 O   0  0  0  0  0  0  0  0  0  0  0  0
   -4.2630   -1.7897    1.5806 O   0  0  0  0  0  0  0  0  0  0  0  0
   -5.0533    0.5059    0.1755 O   0  0  0  0  0  0  0  0  0  0  0  0
   -3.8737    2.9344   -0.8806 O   0  0  0  0  0  0  0  0  0  0  0  0
   -2.0023    2.5483   -1.6205 H   0  0  0  0  0  0  0  0  0  0  0  0
   -2.1377    2.5070    0.1299 H   0  0  0  0  0  0  0  0  0  0  0  0
   -3.4203    0.4878   -1.7710 H   0  0  0  0  0  0  0  0  0  0  0  0
   -3.3596    0.7087    1.2738 H   0  0  0  0  0  0  0  0  0  0  0  0
   -3.7951   -1.8211   -0.3941 H   0  0  0  0  0  0  0  0  0  0  0  0
   -1.7645   -1.7071    1.8519 H   0  0  0  0  0  0  0  0  0  0  0  0
   -1.0096    0.3488    0.9479 H   0  0  0  0  0  0  0  0  0  0  0  0
    0.7696    0.6335   -1.1111 H   0  0  0  0  0  0  0  0  0  0  0  0
    2.0241   -1.7982   -1.3826 H   0  0  0  0  0  0  0  0  0  0  0  0
    4.9616    0.3470   -0.1355 H   0  0  0  0  0  0  0  0  0  0  0  0
    3.1747    1.9225   -0.1650 H   0  0  0  0  0  0  0  0  0  0  0  0
    1.6377    0.1029    1.7589 H   0  0  0  0  0  0  0  0  0  0  0  0
    1.3565    2.4361    1.7084 H   0  0  0  0  0  0  0  0  0  0  0  0
    3.9739    1.3303    2.4259 H   0  0  0  0  0  0  0  0  0  0  0  0
    5.1688   -1.1277    1.5193 H   0  0  0  0  0  0  0  0  0  0  0  0
    2.1062    0.0121   -3.0738 H   0  0  0  0  0  0  0  0  0  0  0  0
    3.3322    0.8712   -2.1273 H   0  0  0  0  0  0  0  0  0  0  0  0
    4.3570   -1.4227   -2.2354 H   0  0  0  0  0  0  0  0  0  0  0  0
   -0.7134   -2.8114   -0.0633 H   0  0  0  0  0  0  0  0  0  0  0  0
   -4.0853   -2.7500    1.6273 H   0  0  0  0  0  0  0  0  0  0  0  0
   -5.5243   -0.0917    0.7942 H   0  0  0  0  0  0  0  0  0  0  0  0
   -4.5822    2.3746   -0.4998 H   0  0  0  0  0  0  0  0  0  0  0  0
  1  2  1  0
  2  3  1  0
  3  4  1  0
  4  5  1  0
  5  6  1  0
  6  7  1  0
  6  8  1  0
  8  9  1  0
  9 10  1  0
 10 11  1  0
 11 12  1  0
 12 13  1  0
 13 14  1  0
 14 15  1  0
 13 16  1  0
 12 17  1  0
 10 18  1  0
 18 19  1  0
  5 20  1  0
  4 21  1  0
  3 22  1  0
  1 23  1  0
  7  2  1  0
 14  9  1  0
  1 24  1  0
  1 25  1  0
  2 26  1  6
  3 27  1  1
  4 28  1  6
  5 29  1  1
  6 30  1  6
  9 31  1  6
 10 32  1  1
 12 33  1  0
 13 34  1  6
 14 35  1  1
 15 36  1  0
 16 37  1  0
 17 38  1  0
 18 39  1  0
 18 40  1  0
 19 41  1  0
 20 42  1  0
 21 43  1  0
 22 44  1  0
 23 45  1  0
M  END
$$$$
