notebook-triglyceride
     RDKit          3D

 65 64  0  0  0  0  0  0  0  0999 V2000
   -6.8706    1.6431    0.6883 C   0  0  0  0  0  0  0  0  0  0  0  0
   -7.2940    0.6869   -0.4184 C   0  0  0  0  0  0  0  0  0  0  0  0
   -6.2629    0.5786   -1.5467 C   0  0  0  0  0  0  0  0  0  0  0  0
   -5.3605   -0.6613   -1.4703 C   0  0  0  0  0  0  0  0  0  0  0  0
   -4.4613   -0.7521   -0.2399 C   0  0  0  0  0  0  0  0  0  0  0  0
   -3.4198    0.3404   -0.1842 C   0  0  0  0  0  0  0  0  0  0  0  0
   -3.0256    0.9971   -1.1365 O   0  0  0  0  0  0  0  0  0  0  0  0
   -2.9539    0.4647    1.0927 O   0  0  0  0  0  0  0  0  0  0  0  0
   -1.8921    1.4148    1.2655 C   0  0  0  0  0  0  0  0  0  0  0  0
   -0.5302    0.8089    0.9073 C   0  0  0  0  0  0  0  0  0  0  0  0
    0.4600    1.8515    1.0777 O   0  0  0  0  0  0  0  0  0  0  0  0
    1.5591    1.7876    0.2722 C   0  0  0  0  0  0  0  0  0  0  0  0
    1.7666    0.9379   -0.5807 O   0  0  0  0  0  0  0  0  0  0  0  0
    2.4924    2.9235    0.6226 C   0  0  0  0  0  0  0  0  0  0  0  0
    3.6571    3.0351   -0.3603 C   0  0  0  0  0  0  0  0  0  0  0  0
    4.5892    4.1882    0.0180 C   0  0  0  0  0  0  0  0  0  0  0  0
    5.7019    4.4319   -1.0036 C   0  0  0  0  0  0  0  0  0  0  0  0
    6.6794    3.2727   -1.1275 C   0  0  0  0  0  0  0  0  0  0  0  0
   -0.1988   -0.3584    1.8528 C   0  0  0  0  0  0  0  0  0  0  0  0
    0.9416   -1.1017    1.3870 O   0  0  0  0  0  0  0  0  0  0  0  0
    0.6686   -2.0090    0.4048 C   0  0  0  0  0  0  0  0  0  0  0  0
   -0.4487   -2.2362   -0.0411 O   0  0  0  0  0  0  0  0  0  0  0  0
    1.9487   -2.6659   -0.0559 C   0  0  0  0  0  0  0  0  0  0  0  0
    1.6775   -4.0148   -0.7212 C   0  0  0  0  0  0  0  0  0  0  0  0
    2.9337   -4.6830   -1.2869 C   0  0  0  0  0  0  0  0  0  0  0  0
    4.0424   -4.9833   -0.2742 C   0  0  0  0  0  0  0  0  0  0  0  0
    3.6003   -5.8972    0.8585 C   0  0  0  0  0  0  0  0  0  0  0  0
   -7.6599    1.7132    1.4445 H   0  0  0  0  0  0  0  0  0  0  0  0
   -6.7005    2.6486    0.2904 H   0  0  0  0  0  0  0  0  0  0  0  0
   -5.9564    1.3145    1.1883 H   0  0  0  0  0  0  0  0  0  0  0  0
   -7.5195   -0.2984    0.0039 H   0  0  0  0  0  0  0  0  0  0  0  0
   -8.2329    1.0664   -0.8405 H   0  0  0  0  0  0  0  0  0  0  0  0
   -6.8119    0.5118   -2.4952 H   0  0  0  0  0  0  0  0  0  0  0  0
   -5.6594    1.4914   -1.6135 H   0  0  0  0  0  0  0  0  0  0  0  0
   -4.7389   -0.6895   -2.3749 H   0  0  0  0  0  0  0  0  0  0  0  0
   -5.9928   -1.5581   -1.5043 H   0  0  0  0  0  0  0  0  0  0  0  0
   -5.0664   -0.7307    0.6715 H   0  0  0  0  0  0  0  0  0  0  0  0
   -3.9227   -1.7067   -0.2576 H   0  0  0  0  0  0  0  0  0  0  0  0
   -1.9004    1.7257    2.3175 H   0  0  0  0  0  0  0  0  0  0  0  0
   -2.0833    2.3307    0.6909 H   0  0  0  0  0  0  0  0  0  0  0  0
   -0.5475    0.4704   -0.1346 H   0  0  0  0  0  0  0  0  0  0  0  0
    1.9165    3.8570    0.6175 H   0  0  0  0  0  0  0  0  0  0  0  0
    2.8748    2.7452    1.6347 H   0  0  0  0  0  0  0  0  0  0  0  0
    3.2699    3.1843   -1.3753 H   0  0  0  0  0  0  0  0  0  0  0  0
    4.2140    2.0911   -0.3681 H   0  0  0  0  0  0  0  0  0  0  0  0
    4.0016    5.1106    0.1099 H   0  0  0  0  0  0  0  0  0  0  0  0
    5.0325    3.9956    1.0029 H   0  0  0  0  0  0  0  0  0  0  0  0
    5.2641    4.6484   -1.9855 H   0  0  0  0  0  0  0  0  0  0  0  0
    6.2607    5.3265   -0.7011 H   0  0  0  0  0  0  0  0  0  0  0  0
    7.5032    3.5457   -1.7958 H   0  0  0  0  0  0  0  0  0  0  0  0
    6.1964    2.3842   -1.5438 H   0  0  0  0  0  0  0  0  0  0  0  0
    7.1062    3.0123   -0.1534 H   0  0  0  0  0  0  0  0  0  0  0  0
   -1.0475   -1.0367    1.9971 H   0  0  0  0  0  0  0  0  0  0  0  0
    0.0745    0.0278    2.8412 H   0  0  0  0  0  0  0  0  0  0  0  0
    2.4463   -1.9854   -0.7554 H   0  0  0  0  0  0  0  0  0  0  0  0
    2.5931   -2.8086    0.8187 H   0  0  0  0  0  0  0  0  0  0  0  0
    0.9689   -3.8755   -1.5481 H   0  0  0  0  0  0  0  0  0  0  0  0
    1.1792   -4.6856   -0.0102 H   0  0  0  0  0  0  0  0  0  0  0  0
    3.3490   -4.0473   -2.0796 H   0  0  0  0  0  0  0  0  0  0  0  0
    2.6346   -5.6220   -1.7707 H   0  0  0  0  0  0  0  0  0  0  0  0
    4.4428   -4.0513    0.1411 H   0  0  0  0  0  0  0  0  0  0  0  0
    4.8720   -5.4639   -0.8070 H   0  0  0  0  0  0  0  0  0  0  0  0
    3.1561   -6.8200    0.4705 H   0  0  0  0  0  0  0  0  0  0  0  0
    2.8689   -5.4064    1.5082 H   0  0  0  0  0  0  0  0  0  0  0  0
    4.4600   -6.1699    1.4794 H   0  0  0  0  0  0  0  0  0  0  0  0
  1  2  1  0
  2  3  1  0
  3  4  1  0
  4  5  1  0
  5  6  1  0
  6  7  2  0
  6  8  1  0
  8  9  1  0
  9 10  1  0
 10 11  1  0
 11 12  1  0
 12 13  2  0
 12 14  1  0
 14 15  1  0
 15 16  1  0
 16 17  1  0
 17 18  1  0
 10 19  1  0
 19 20  1  0
 20 21  1  0
 21 22  2  0
 21 23  1  0
 23 24  1  0
 24 25  1  0
 25 26  1  0
 26 27  1  0
  1 28  1  0
  1 29  1  0
  1 30  1  0
  2 31  1  0
  2 32  1  0
  3 33  1  0
  3 34  1  0
  4 35  1  0
  4 36  1  0
  5 37  1  0
  5 38  1  0
  9 39  1  0
  9 40  1  0
 10 41  1  0
 14 42  1  0
 14 43  1  0
 15 44  1  0
 15 45  1  0
 16 46  1  0
 16 47  1  0
 17 48  1  0
 17 49  1  0
 18 50  1  0
 18 51  1  0
 18 52  1  0
 19 53  1  0
 19 54  1  0
 23 55  1  0
 23 56  1  0
 24 57  1  0
 24 58  1  0
 25 59  1  0
 25 60  1  0
 26 61  1  0
 26 62  1  0
 27 63  1  0
 27 64  1  0
 27 65  1  0
M  END
$$$$
