notebook-reactants-sucrose
     RDKit          3D

 48 47  0  0  0  0  0  0  0  0999 V2000
   -9.6794    1.5647   -0.2726 O   0  0  0  0  0  0  0  0  0  0  0  0
   -8.8835    0.8234    0.3009 C   0  0  0  0  0  0  0  0  0  0  0  0
   -7.8735   -0.0258   -0.4480 C   0  0  2  0  0  0  0  0  0  0  0  0
   -8.2443   -1.4038   -0.3857 O   0  0  0  0  0  0  0  0  0  0  0  0
   -6.4696    0.2017    0.1426 C   0  0  1  0  0  0  0  0  0  0  0  0
   -6.4903   -0.1451    1.5365 O   0  0  0  0  0  0  0  0  0  0  0  0
   -5.3961   -0.6342   -0.6057 C   0  0  2  0  0  0  0  0  0  0  0  0
   -5.6095   -2.0391   -0.3832 O   0  0  0  0  0  0  0  0  0  0  0  0
   -3.9508   -0.3133   -0.1682 C   0  0  2  0  0  0  0  0  0  0  0  0
   -3.8566   -0.2657    1.2696 O   0  0  0  0  0  0  0  0  0  0  0  0
   -3.4453    1.0240   -0.7176 C   0  0  0  0  0  0  0  0  0  0  0  0
   -2.1011    1.2133   -0.2687 O   0  0  0  0  0  0  0  0  0  0  0  0
   -8.9023    0.7073    1.3982 H   0  0  0  0  0  0  0  0  0  0  0  0
   -7.8805    0.2746   -1.5021 H   0  0  0  0  0  0  0  0  0  0  0  0
   -9.1362   -1.4734   -0.7763 H   0  0  0  0  0  0  0  0  0  0  0  0
   -6.2287    1.2684    0.0803 H   0  0  0  0  0  0  0  0  0  0  0  0
   -5.5611   -0.3697    1.7784 H   0  0  0  0  0  0  0  0  0  0  0  0
   -5.4866   -0.4733   -1.6861 H   0  0  0  0  0  0  0  0  0  0  0  0
   -6.5584   -2.1576   -0.1594 H   0  0  0  0  0  0  0  0  0  0  0  0
   -3.2781   -1.1192   -0.4860 H   0  0  0  0  0  0  0  0  0  0  0  0
   -2.9257   -0.0105    1.4406 H   0  0  0  0  0  0  0  0  0  0  0  0
   -3.4562    1.0325   -1.8115 H   0  0  0  0  0  0  0  0  0  0  0  0
   -4.0340    1.8629   -0.3356 H   0  0  0  0  0  0  0  0  0  0  0  0
   -1.7901    2.0572   -0.6425 H   0  0  0  0  0  0  0  0  0  0  0  0
    5.8248    1.1472    0.4218 O   0  0  0  0  0  0  0  0  0  0  0  0
    4.8276   -0.0952   -1.2530 O   0  0  0  0  0  0  0  0  0  0  0  0
    5.5678   -2.4403   -0.0169 O   0  0  0  0  0  0  0  0  0  0  0  0
    8.3255   -1.3750    0.9069 O   0  0  0  0  0  0  0  0  0  0  0  0
    2.8413    0.9567    0.2155 O   0  0  0  0  0  0  0  0  0  0  0  0
    7.4510    1.3875   -1.9105 O   0  0  0  0  0  0  0  0  0  0  0  0
    5.0517   -0.0284    0.1596 C   0  0  1  0  0  0  0  0  0  0  0  0
    5.9230   -1.2035    0.5987 C   0  0  2  0  0  0  0  0  0  0  0  0
    7.2970   -0.7346    0.1559 C   0  0  1  0  0  0  0  0  0  0  0  0
    7.2246    0.7665    0.4395 C   0  0  1  0  0  0  0  0  0  0  0  0
    3.6958    0.0125    0.8810 C   0  0  0  0  0  0  0  0  0  0  0  0
    7.9699    1.6065   -0.5983 C   0  0  0  0  0  0  0  0  0  0  0  0
    4.0214    0.4521   -1.3725 H   0  0  0  0  0  0  0  0  0  0  0  0
    5.3559   -2.2191   -0.9483 H   0  0  0  0  0  0  0  0  0  0  0  0
    8.2080   -2.3336    0.7636 H   0  0  0  0  0  0  0  0  0  0  0  0
    2.0583    1.0747    0.7829 H   0  0  0  0  0  0  0  0  0  0  0  0
    6.4762    1.3938   -1.8267 H   0  0  0  0  0  0  0  0  0  0  0  0
    5.9042   -1.3438    1.6861 H   0  0  0  0  0  0  0  0  0  0  0  0
    7.4726   -0.9611   -0.9018 H   0  0  0  0  0  0  0  0  0  0  0  0
    7.6159    0.9997    1.4366 H   0  0  0  0  0  0  0  0  0  0  0  0
    3.1949   -0.9591    0.8319 H   0  0  0  0  0  0  0  0  0  0  0  0
    3.8115    0.3236    1.9238 H   0  0  0  0  0  0  0  0  0  0  0  0
    7.8517    2.6726   -0.3798 H   0  0  0  0  0  0  0  0  0  0  0  0
    9.0370    1.3660   -0.6075 H   0  0  0  0  0  0  0  0  0  0  0  0
  1  2  2  0
  2  3  1  0
  3  4  1  0
  3  5  1  0
  5  6  1  0
  5  7  1  0
  7  8  1  0
  7  9  1  0
  9 10  1  0
  9 11  1  0
 11 12  1  0
  2 13  1  0
  3 14  1  6
  4 15  1  0
  5 16  1  1
  6 17  1  0
  7 18  1  6
  8 19  1  0
  9 20  1  6
 10 21  1  0
 11 22  1  0
 11 23  1  0
 12 24  1  0
 25 31  1  0
 25 34  1  0
 31 26  1  6
 27 32  1  0
 28 33  1  0
 29 35  1  0
 30 36  1  0
 31 32  1  0
 31 35  1  0
 32 33  1  0
 33 34  1  0
 34 36  1  0
 26 37  1  0
 27 38  1  0
 28 39  1  0
 29 40  1  0
 30 41  1  0
 32 42  1  1
 33 43  1  6
 34 44  1  1
 35 45  1  0
 35 46  1  0
 36 47  1  0
 36 48  1  0
M  END
$$$$
