notebook-fatty-unsaturated
     RDKit          3D

 24 23  0  0  0  0  0  0  0  0999 V2000
   -4.4637    0.4391    0.1728 C   0  0  0  0  0  0  0  0  0  0  0  0
   -3.1152    1.0798   -0.1242 C   0  0  0  0  0  0  0  0  0  0  0  0
   -2.1518    0.1560   -0.8729 C   0  0  0  0  0  0  0  0  0  0  0  0
   -1.7410   -1.0482   -0.0721 C   0  0  0  0  0  0  0  0  0  0  0  0
   -0.5775   -1.2333    0.5722 C   0  0  0  0  0  0  0  0  0  0  0  0
    0.5579   -0.2544    0.6893 C   0  0  0  0  0  0  0  0  0  0  0  0
    1.7435   -0.6752   -0.1733 C   0  0  0  0  0  0  0  0  0  0  0  0
    2.8828    0.2954   -0.0394 C   0  0  0  0  0  0  0  0  0  0  0  0
    2.9338    1.2918    0.6604 O   0  0  0  0  0  0  0  0  0  0  0  0
    3.9312   -0.0509   -0.8128 O   0  0  0  0  0  0  0  0  0  0  0  0
   -4.3643   -0.4064    0.8602 H   0  0  0  0  0  0  0  0  0  0  0  0
   -4.9402    0.0838   -0.7464 H   0  0  0  0  0  0  0  0  0  0  0  0
   -5.1319    1.1701    0.6394 H   0  0  0  0  0  0  0  0  0  0  0  0
   -2.6594    1.4180    0.8142 H   0  0  0  0  0  0  0  0  0  0  0  0
   -3.2835    1.9750   -0.7349 H   0  0  0  0  0  0  0  0  0  0  0  0
   -1.2743    0.7343   -1.1824 H   0  0  0  0  0  0  0  0  0  0  0  0
   -2.6187   -0.1904   -1.8033 H   0  0  0  0  0  0  0  0  0  0  0  0
   -2.4705   -1.8572   -0.0406 H   0  0  0  0  0  0  0  0  0  0  0  0
   -0.4323   -2.1796    1.0932 H   0  0  0  0  0  0  0  0  0  0  0  0
    0.2411    0.7614    0.4279 H   0  0  0  0  0  0  0  0  0  0  0  0
    0.8606   -0.2058    1.7431 H   0  0  0  0  0  0  0  0  0  0  0  0
    1.4467   -0.7111   -1.2279 H   0  0  0  0  0  0  0  0  0  0  0  0
    2.1001   -1.6662    0.1303 H   0  0  0  0  0  0  0  0  0  0  0  0
    4.5968    0.6474   -0.6389 H   0  0  0  0  0  0  0  0  0  0  0  0
  1  2  1  0
  2  3  1  0
  3  4  1  0
  4  5  2  0
  5  6  1  0
  6  7  1  0
  7  8  1  0
  8  9  2  0
  8 10  1  0
  1 11  1  0
  1 12  1  0
  1 13  1  0
  2 14  1  0
  2 15  1  0
  3 16  1  0
  3 17  1  0
  4 18  1  0
  5 19  1  0
  6 20  1  0
  6 21  1  0
  7 22  1  0
  7 23  1  0
 10 24  1  0
M  END
$$$$
