notebook-glucose
     RDKit          3D

 24 23  0  0  0  0  0  0  0  0999 V2000
   -3.6794    1.5647   -0.2726 O   0  0  0  0  0  0  0  0  0  0  0  0
   -2.8835    0.8234    0.3009 C   0  0  0  0  0  0  0  0  0  0  0  0
   -1.8735   -0.0258   -0.4480 C   0  0  2  0  0  0  0  0  0  0  0  0
   -2.2443   -1.4038   -0.3857 O   0  0  0  0  0  0  0  0  0  0  0  0
   -0.4696    0.2017    0.1426 C   0  0  1  0  0  0  0  0  0  0  0  0
   -0.4903   -0.1451    1.5365 O   0  0  0  0  0  0  0  0  0  0  0  0
    0.6039   -0.6342   -0.6057 C   0  0  2  0  0  0  0  0  0  0  0  0
    0.3905   -2.0391   -0.3832 O   0  0  0  0  0  0  0  0  0  0  0  0
    2.0492   -0.3133   -0.1682 C   0  0  2  0  0  0  0  0  0  0  0  0
    2.1434   -0.2657    1.2696 O   0  0  0  0  0  0  0  0  0  0  0  0
    2.5547    1.0240   -0.7176 C   0  0  0  0  0  0  0  0  0  0  0  0
    3.8989    1.2133   -0.2687 O   0  0  0  0  0  0  0  0  0  0  0  0
   -2.9023    0.7073    1.3982 H   0  0  0  0  0  0  0  0  0  0  0  0
   -1.8805    0.2746   -1.5021 H   0  0  0  0  0  0  0  0  0  0  0  0
   -3.1362   -1.4734   -0.7763 H   0  0  0  0  0  0  0  0  0  0  0  0
   -0.2287    1.2684    0.0803 H   0  0  0  0  0  0  0  0  0  0  0  0
    0.4389   -0.3697    1.7784 H   0  0  0  0  0  0  0  0  0  0  0  0
    0.5134   -0.4733   -1.6861 H   0  0  0  0  0  0  0  0  0  0  0  0
   -0.5584   -2.1576   -0.1594 H   0  0  0  0  0  0  0  0  0  0  0  0
    2.7219   -1.1192   -0.4860 H   0  0  0  0  0  0  0  0  0  0  0  0
    3.0743   -0.0105    1.4406 H   0  0  0  0  0  0  0  0  0  0  0  0
    2.5438    1.0325   -1.8115 H   0  0  0  0  0  0  0  0  0  0  0  0
    1.9660    1.8629   -0.3356 H   0  0  0  0  0  0  0  0  0  0  0  0
    4.2099    2.0572   -0.6425 H   0  0  0  0  0  0  0  0  0  0  0  0
  1  2  2  0
  2  3  1  0
  3  4  1  0
  3  5  1  0
  5  6  1  0
  5  7  1  0
  7  8  1  0
  7  9  1  0
  9 10  1  0
  9 11  1  0
 11 12  1  0
  2 13  1  0
  3 14  1  6
  4 15  1  0
  5 16  1  1
  6 17  1  0
  7 18  1  6
  8 19  1  0
  9 20  1  6
 10 21  1  0
 11 22  1  0
 11 23  1  0
 12 24  1  0
M  END
$$$$
