notebook-reactants-triglyceride
     RDKit          3D

 74 70  0  0  0  0  0  0  0  0999 V2000
   -7.9765   -1.3493    0.2499 O   0  0  0  0  0  0  0  0  0  0  0  0
   -5.6012   -0.0044   -0.2369 O   0  0  0  0  0  0  0  0  0  0  0  0
  -10.4131   -0.0097   -0.2384 O   0  0  0  0  0  0  0  0  0  0  0  0
   -7.9999   -0.0124   -0.2555 C   0  0  0  0  0  0  0  0  0  0  0  0
   -6.7456    0.6980    0.2362 C   0  0  0  0  0  0  0  0  0  0  0  0
   -9.2637    0.6778    0.2447 C   0  0  0  0  0  0  0  0  0  0  0  0
   -8.0033   -0.0966   -1.3473 H   0  0  0  0  0  0  0  0  0  0  0  0
   -6.6924    0.7187    1.3298 H   0  0  0  0  0  0  0  0  0  0  0  0
   -6.6982    1.7246   -0.1387 H   0  0  0  0  0  0  0  0  0  0  0  0
   -9.3070    1.7136   -0.1066 H   0  0  0  0  0  0  0  0  0  0  0  0
   -9.3100    0.6670    1.3389 H   0  0  0  0  0  0  0  0  0  0  0  0
   -7.9786   -1.3033    1.2213 H   0  0  0  0  0  0  0  0  0  0  0  0
   -5.6592   -0.9155    0.0984 H   0  0  0  0  0  0  0  0  0  0  0  0
  -11.1917    0.4634    0.1016 H   0  0  0  0  0  0  0  0  0  0  0  0
    2.1467   -6.6520   -1.0891 C   0  0  0  0  0  0  0  0  0  0  0  0
    2.4230   -6.4598    0.3938 C   0  0  0  0  0  0  0  0  0  0  0  0
    3.2314   -5.1985    0.7069 C   0  0  0  0  0  0  0  0  0  0  0  0
    4.6171   -5.1213    0.0598 C   0  0  0  0  0  0  0  0  0  0  0  0
    5.5449   -6.2625    0.4735 C   0  0  0  0  0  0  0  0  0  0  0  0
    6.9340   -6.0742   -0.0751 C   0  0  0  0  0  0  0  0  0  0  0  0
    7.3263   -5.1974   -0.8249 O   0  0  0  0  0  0  0  0  0  0  0  0
    7.7766   -7.0343    0.3553 O   0  0  0  0  0  0  0  0  0  0  0  0
    3.0679   -6.8449   -1.6468 H   0  0  0  0  0  0  0  0  0  0  0  0
    1.4832   -7.5098   -1.2393 H   0  0  0  0  0  0  0  0  0  0  0  0
    1.6607   -5.7692   -1.5162 H   0  0  0  0  0  0  0  0  0  0  0  0
    2.9298   -7.3465    0.7899 H   0  0  0  0  0  0  0  0  0  0  0  0
    1.4633   -6.3924    0.9206 H   0  0  0  0  0  0  0  0  0  0  0  0
    2.6537   -4.3202    0.3927 H   0  0  0  0  0  0  0  0  0  0  0  0
    3.3430   -5.1193    1.7955 H   0  0  0  0  0  0  0  0  0  0  0  0
    4.5239   -5.0931   -1.0324 H   0  0  0  0  0  0  0  0  0  0  0  0
    5.0730   -4.1643    0.3452 H   0  0  0  0  0  0  0  0  0  0  0  0
    5.6124   -6.3058    1.5661 H   0  0  0  0  0  0  0  0  0  0  0  0
    5.1658   -7.2183    0.0981 H   0  0  0  0  0  0  0  0  0  0  0  0
    8.6307   -6.8060   -0.0682 H   0  0  0  0  0  0  0  0  0  0  0  0
    2.1467   -0.6520   -1.0891 C   0  0  0  0  0  0  0  0  0  0  0  0
    2.4230   -0.4598    0.3938 C   0  0  0  0  0  0  0  0  0  0  0  0
    3.2314    0.8015    0.7069 C   0  0  0  0  0  0  0  0  0  0  0  0
    4.6171    0.8787    0.0598 C   0  0  0  0  0  0  0  0  0  0  0  0
    5.5449   -0.2625    0.4735 C   0  0  0  0  0  0  0  0  0  0  0  0
    6.9340   -0.0742   -0.0751 C   0  0  0  0  0  0  0  0  0  0  0  0
    7.3263    0.8026   -0.8249 O   0  0  0  0  0  0  0  0  0  0  0  0
    7.7766   -1.0343    0.3553 O   0  0  0  0  0  0  0  0  0  0  0  0
    3.0679   -0.8449   -1.6468 H   0  0  0  0  0  0  0  0  0  0  0  0
    1.4832   -1.5098   -1.2393 H   0  0  0  0  0  0  0  0  0  0  0  0
    1.6607    0.2308   -1.5162 H   0  0  0  0  0  0  0  0  0  0  0  0
    2.9298   -1.3465    0.7899 H   0  0  0  0  0  0  0  0  0  0  0  0
    1.4633   -0.3924    0.9206 H   0  0  0  0  0  0  0  0  0  0  0  0
    2.6537    1.6798    0.3927 H   0  0  0  0  0  0  0  0  0  0  0  0
    3.3430    0.8807    1.7955 H   0  0  0  0  0  0  0  0  0  0  0  0
    4.5239    0.9069   -1.0324 H   0  0  0  0  0  0  0  0  0  0  0  0
    5.0730    1.8357    0.3452 H   0  0  0  0  0  0  0  0  0  0  0  0
    5.6124   -0.3058    1.5661 H   0  0  0  0  0  0  0  0  0  0  0  0
    5.1658   -1.2183    0.0981 H   0  0  0  0  0  0  0  0  0  0  0  0
    8.6307   -0.8060   -0.0682 H   0  0  0  0  0  0  0  0  0  0  0  0
    2.1467    5.3480   -1.0891 C   0  0  0  0  0  0  0  0  0  0  0  0
    2.4230    5.5402    0.3938 C   0  0  0  0  0  0  0  0  0  0  0  0
    3.2314    6.8015    0.7069 C   0  0  0  0  0  0  0  0  0  0  0  0
    4.6171    6.8787    0.0598 C   0  0  0  0  0  0  0  0  0  0  0  0
    5.5449    5.7375    0.4735 C   0  0  0  0  0  0  0  0  0  0  0  0
    6.9340    5.9258   -0.0751 C   0  0  0  0  0  0  0  0  0  0  0  0
    7.3263    6.8026   -0.8249 O   0  0  0  0  0  0  0  0  0  0  0  0
    7.7766    4.9657    0.3553 O   0  0  0  0  0  0  0  0  0  0  0  0
    3.0679    5.1551   -1.6468 H   0  0  0  0  0  0  0  0  0  0  0  0
    1.4832    4.4902   -1.2393 H   0  0  0  0  0  0  0  0  0  0  0  0
    1.6607    6.2308   -1.5162 H   0  0  0  0  0  0  0  0  0  0  0  0
    2.9298    4.6535    0.7899 H   0  0  0  0  0  0  0  0  0  0  0  0
    1.4633    5.6076    0.9206 H   0  0  0  0  0  0  0  0  0  0  0  0
    2.6537    7.6798    0.3927 H   0  0  0  0  0  0  0  0  0  0  0  0
    3.3430    6.8807    1.7955 H   0  0  0  0  0  0  0  0  0  0  0  0
    4.5239    6.9069   -1.0324 H   0  0  0  0  0  0  0  0  0  0  0  0
    5.0730    7.8357    0.3452 H   0  0  0  0  0  0  0  0  0  0  0  0
    5.6124    5.6942    1.5661 H   0  0  0  0  0  0  0  0  0  0  0  0
    5.1658    4.7817    0.0981 H   0  0  0  0  0  0  0  0  0  0  0  0
    8.6307    5.1940   -0.0682 H   0  0  0  0  0  0  0  0  0  0  0  0
  1  4  1  0
  1 12  1  0
  2  5  1  0
  2 13  1  0
  3  6  1  0
  3 14  1  0
  4  5  1  0
  4  6  1  0
  4  7  1  0
  5  8  1  0
  5  9  1  0
  6 10  1  0
  6 11  1  0
 15 16  1  0
 16 17  1  0
 17 18  1  0
 18 19  1  0
 19 20  1  0
 20 21  2  0
 20 22  1  0
 15 23  1  0
 15 24  1  0
 15 25  1  0
 16 26  1  0
 16 27  1  0
 17 28  1  0
 17 29  1  0
 18 30  1  0
 18 31  1  0
 19 32  1  0
 19 33  1  0
 22 34  1  0
 35 36  1  0
 36 37  1  0
 37 38  1  0
 38 39  1  0
 39 40  1  0
 40 41  2  0
 40 42  1  0
 35 43  1  0
 35 44  1  0
 35 45  1  0
 36 46  1  0
 36 47  1  0
 37 48  1  0
 37 49  1  0
 38 50  1  0
 38 51  1  0
 39 52  1  0
 39 53  1  0
 42 54  1  0
 55 56  1  0
 56 57  1  0
 57 58  1  0
 58 59  1  0
 59 60  1  0
 60 61  2  0
 60 62  1  0
 55 63  1  0
 55 64  1  0
 55 65  1  0
 56 66  1  0
 56 67  1  0
 57 68  1  0
 57 69  1  0
 58 70  1  0
 58 71  1  0
 59 72  1  0
 59 73  1  0
 62 74  1  0
M  END
>  <PUBCHEM_COMPOUND_CID>  (1) 
753

>  <PUBCHEM_CONFORMER_RMSD>  (1) 
0.4

>  <PUBCHEM_CONFORMER_DIVERSEORDER>  (1) 
1
9
3
8
5
2
7
6
4

>  <PUBCHEM_MMFF94_PARTIAL_CHARGES>  (1) 
9
1 -0.68
12 0.4
13 0.4
14 0.4
2 -0.68
3 -0.68
4 0.28
5 0.28
6 0.28

>  <PUBCHEM_EFFECTIVE_ROTOR_COUNT>  (1) 
2

>  <PUBCHEM_PHARMACOPHORE_FEATURES>  (1) 
6
1 1 acceptor
1 1 donor
1 2 acceptor
1 2 donor
1 3 acceptor
1 3 donor

>  <PUBCHEM_HEAVY_ATOM_COUNT>  (1) 
6

>  <PUBCHEM_ATOM_DEF_STEREO_COUNT>  (1) 
0

>  <PUBCHEM_ATOM_UDEF_STEREO_COUNT>  (1) 
0

>  <PUBCHEM_BOND_DEF_STEREO_COUNT>  (1) 
0

>  <PUBCHEM_BOND_UDEF_STEREO_COUNT>  (1) 
0

>  <PUBCHEM_ISOTOPIC_ATOM_COUNT>  (1) 
0

>  <PUBCHEM_COMPONENT_COUNT>  (1) 
1

>  <PUBCHEM_CACTVS_TAUTO_COUNT>  (1) 
1

>  <PUBCHEM_CONFORMER_ID>  (1) 
000002F100000001

>  <PUBCHEM_MMFF94_ENERGY>  (1) 
7.8462

>  <PUBCHEM_FEATURE_SELFOVERLAP>  (1) 
30.463

>  <PUBCHEM_SHAPE_FINGERPRINT>  (1) 
16714656 1 18261115187881759708
20096714 4 18411981373004497288
21040471 1 18409165532368289128
5460574 1 8358261440540177956
5943 1 11340980957501139630

>  <PUBCHEM_SHAPE_MULTIPOLES>  (1) 
105.87
2.79
1
0.62
0.04
0.22
0.01
-0.26
-0.27
-0.01
0.12
0
-0.02
0

>  <PUBCHEM_SHAPE_SELFOVERLAP>  (1) 
185.175

>  <PUBCHEM_SHAPE_VOLUME>  (1) 
70

>  <PUBCHEM_COORDINATE_TYPE>  (1) 
2
5
10

$$$$
