notebook-phospholipid
     RDKit          3D

117116  0  0  0  0  0  0  0  0999 V2000
   11.3614  -18.8741    4.6634 C   0  0  0  0  0  0  0  0  0  0  0  0
  -11.0149  -18.4129    4.6634 C   0  0  0  0  0  0  0  0  0  0  0  0
   10.9292  -17.4310    4.4581 C   0  0  0  0  0  0  0  0  0  0  0  0
  -10.8237  -16.9256    4.9148 C   0  0  0  0  0  0  0  0  0  0  0  0
    9.9087  -17.3075    3.3269 C   0  0  0  0  0  0  0  0  0  0  0  0
   -9.7819  -16.3274    3.9697 C   0  0  0  0  0  0  0  0  0  0  0  0
    9.4766  -15.8544    3.1236 C   0  0  0  0  0  0  0  0  0  0  0  0
   -9.5918  -14.8315    4.2262 C   0  0  0  0  0  0  0  0  0  0  0  0
    8.4550  -15.7307    1.9920 C   0  0  0  0  0  0  0  0  0  0  0  0
   -8.5489  -14.2330    3.2809 C   0  0  0  0  0  0  0  0  0  0  0  0
    8.0276  -14.2769    1.7849 C   0  0  0  0  0  0  0  0  0  0  0  0
   -8.3579  -12.7373    3.5384 C   0  0  0  0  0  0  0  0  0  0  0  0
    7.0053  -14.1520    0.6530 C   0  0  0  0  0  0  0  0  0  0  0  0
   -7.3140  -12.1393    2.5938 C   0  0  0  0  0  0  0  0  0  0  0  0
    6.6398  -12.6867    0.3965 C   0  0  0  0  0  0  0  0  0  0  0  0
   -7.1201  -10.6444    2.8533 C   0  0  0  0  0  0  0  0  0  0  0  0
    5.6915  -12.5414   -0.7612 C   0  0  0  0  0  0  0  0  0  0  0  0
    4.8025  -11.5478   -0.9219 C   0  0  0  0  0  0  0  0  0  0  0  0
   -6.0737  -10.0476    1.9108 C   0  0  0  0  0  0  0  0  0  0  0  0
    4.6341  -10.3731    0.0000 C   0  0  0  0  0  0  0  0  0  0  0  0
   -5.8751   -8.5540    2.1735 C   0  0  0  0  0  0  0  0  0  0  0  0
    4.0596   -9.1541   -0.7233 C   0  0  0  0  0  0  0  0  0  0  0  0
   -4.8248   -7.9594    1.2340 C   0  0  0  0  0  0  0  0  0  0  0  0
    3.8628   -7.9903    0.2486 C   0  0  0  0  0  0  0  0  0  0  0  0
   -4.6195   -6.4673    1.5007 C   0  0  0  0  0  0  0  0  0  0  0  0
    3.1775   -6.8083   -0.4334 C   0  0  0  0  0  0  0  0  0  0  0  0
   -3.5642   -5.8759    0.5651 C   0  0  0  0  0  0  0  0  0  0  0  0
    3.0115   -5.6361    0.5332 C   0  0  0  0  0  0  0  0  0  0  0  0
   -3.3514   -4.3861    0.8356 C   0  0  0  0  0  0  0  0  0  0  0  0
    2.2840   -4.4766   -0.1411 C   0  0  0  0  0  0  0  0  0  0  0  0
   -2.2932   -3.8000   -0.0970 C   0  0  0  0  0  0  0  0  0  0  0  0
    2.1487   -3.2789    0.7961 C   0  0  0  0  0  0  0  0  0  0  0  0
   -0.7745   -0.4825   -0.5499 C   0  0  0  0  0  0  0  0  0  0  0  0
    1.0109    1.0875    0.3309 C   0  0  0  0  0  0  0  0  0  0  0  0
    0.1589   -0.1474    0.6239 C   0  0  2  0  0  0  0  0  0  0  0  0
   -2.0586   -2.3308    0.1657 C   0  0  0  0  0  0  0  0  0  0  0  0
    1.4082   -2.1568    0.1207 C   0  0  0  0  0  0  0  0  0  0  0  0
   -2.7078   -1.6338    0.9324 O   0  0  0  0  0  0  0  0  0  0  0  0
    1.1775   -2.1046   -1.0799 O   0  0  0  0  0  0  0  0  0  0  0  0
    2.4583    3.1940    3.2256 O   0  0  0  0  0  0  0  0  0  0  0  0
    1.2980    3.9488    0.9971 O   0  0  0  0  0  0  0  0  0  0  0  0
   -0.9919   -1.9075   -0.5672 O   0  0  0  0  0  0  0  0  0  0  0  0
    0.0233    2.7366    2.7729 O   0  0  0  0  0  0  0  0  0  0  0  0
    1.7147    1.4617    1.5075 O   0  0  0  0  0  0  0  0  0  0  0  0
    1.0045   -1.2520    1.0480 O   0  0  0  0  0  0  0  0  0  0  0  0
    1.4888    2.9471    2.0988 P   0  0  2  0  0  5  0  0  0  0  0  0
   11.8255  -19.2773    3.7576 H   0  0  0  0  0  0  0  0  0  0  0  0
   10.5063  -19.5066    4.9226 H   0  0  0  0  0  0  0  0  0  0  0  0
   12.0910  -18.9391    5.4766 H   0  0  0  0  0  0  0  0  0  0  0  0
  -11.7638  -18.8200    5.3499 H   0  0  0  0  0  0  0  0  0  0  0  0
  -10.0796  -18.9603    4.8174 H   0  0  0  0  0  0  0  0  0  0  0  0
  -11.3566  -18.5968    3.6397 H   0  0  0  0  0  0  0  0  0  0  0  0
   10.4993  -17.0482    5.3910 H   0  0  0  0  0  0  0  0  0  0  0  0
   11.8110  -16.8201    4.2324 H   0  0  0  0  0  0  0  0  0  0  0  0
  -11.7833  -16.4126    4.7843 H   0  0  0  0  0  0  0  0  0  0  0  0
  -10.5134  -16.7740    5.9552 H   0  0  0  0  0  0  0  0  0  0  0  0
   10.3422  -17.6955    2.3971 H   0  0  0  0  0  0  0  0  0  0  0  0
    9.0305  -17.9234    3.5555 H   0  0  0  0  0  0  0  0  0  0  0  0
  -10.0952  -16.4852    2.9305 H   0  0  0  0  0  0  0  0  0  0  0  0
   -8.8250  -16.8473    4.1011 H   0  0  0  0  0  0  0  0  0  0  0  0
    9.0435  -15.4662    4.0534 H   0  0  0  0  0  0  0  0  0  0  0  0
   10.3551  -15.2389    2.8943 H   0  0  0  0  0  0  0  0  0  0  0  0
   -9.2789  -14.6741    5.2656 H   0  0  0  0  0  0  0  0  0  0  0  0
  -10.5486  -14.3117    4.0942 H   0  0  0  0  0  0  0  0  0  0  0  0
    7.5747  -16.3429    2.2228 H   0  0  0  0  0  0  0  0  0  0  0  0
    8.8870  -16.1227    1.0631 H   0  0  0  0  0  0  0  0  0  0  0  0
   -8.8621  -14.3897    2.2416 H   0  0  0  0  0  0  0  0  0  0  0  0
   -7.5925  -14.7534    3.4123 H   0  0  0  0  0  0  0  0  0  0  0  0
    7.5973  -13.8815    2.7130 H   0  0  0  0  0  0  0  0  0  0  0  0
    8.9099  -13.6681    1.5525 H   0  0  0  0  0  0  0  0  0  0  0  0
   -9.3142  -12.2166    3.4061 H   0  0  0  0  0  0  0  0  0  0  0  0
   -8.0453  -12.5807    4.5780 H   0  0  0  0  0  0  0  0  0  0  0  0
    6.1027  -14.7224    0.9055 H   0  0  0  0  0  0  0  0  0  0  0  0
    7.4206  -14.5955   -0.2610 H   0  0  0  0  0  0  0  0  0  0  0  0
   -7.6276  -12.2940    1.5543 H   0  0  0  0  0  0  0  0  0  0  0  0
   -6.3585  -12.6617    2.7245 H   0  0  0  0  0  0  0  0  0  0  0  0
    7.5536  -12.1273    0.1627 H   0  0  0  0  0  0  0  0  0  0  0  0
    6.2100  -12.2591    1.3095 H   0  0  0  0  0  0  0  0  0  0  0  0
   -6.8083  -10.4898    3.8935 H   0  0  0  0  0  0  0  0  0  0  0  0
   -8.0751  -10.1213    2.7208 H   0  0  0  0  0  0  0  0  0  0  0  0
    5.7331  -13.3131   -1.5288 H   0  0  0  0  0  0  0  0  0  0  0  0
    4.1508  -11.5857   -1.7937 H   0  0  0  0  0  0  0  0  0  0  0  0
   -5.1198  -10.5734    2.0412 H   0  0  0  0  0  0  0  0  0  0  0  0
   -6.3870  -10.1993    0.8706 H   0  0  0  0  0  0  0  0  0  0  0  0
    3.9494  -10.6653    0.8056 H   0  0  0  0  0  0  0  0  0  0  0  0
    5.5917  -10.1000    0.4580 H   0  0  0  0  0  0  0  0  0  0  0  0
   -5.5643   -8.4024    3.2145 H   0  0  0  0  0  0  0  0  0  0  0  0
   -6.8277   -8.0273    2.0402 H   0  0  0  0  0  0  0  0  0  0  0  0
    3.0970   -9.4154   -1.1810 H   0  0  0  0  0  0  0  0  0  0  0  0
    4.7303   -8.8484   -1.5360 H   0  0  0  0  0  0  0  0  0  0  0  0
   -3.8735   -8.4896    1.3643 H   0  0  0  0  0  0  0  0  0  0  0  0
   -5.1372   -8.1070    0.1930 H   0  0  0  0  0  0  0  0  0  0  0  0
    4.8356   -7.6775    0.6472 H   0  0  0  0  0  0  0  0  0  0  0  0
    3.2552   -8.3189    1.1009 H   0  0  0  0  0  0  0  0  0  0  0  0
   -5.5693   -5.9356    1.3665 H   0  0  0  0  0  0  0  0  0  0  0  0
   -4.3106   -6.3197    2.5428 H   0  0  0  0  0  0  0  0  0  0  0  0
    3.7680   -6.4894   -1.3008 H   0  0  0  0  0  0  0  0  0  0  0  0
    2.1947   -7.1202   -0.8079 H   0  0  0  0  0  0  0  0  0  0  0  0
   -2.6161   -6.4116    0.6961 H   0  0  0  0  0  0  0  0  0  0  0  0
   -3.8751   -6.0192   -0.4770 H   0  0  0  0  0  0  0  0  0  0  0  0
    2.4478   -5.9599    1.4164 H   0  0  0  0  0  0  0  0  0  0  0  0
    3.9972   -5.3037    0.8810 H   0  0  0  0  0  0  0  0  0  0  0  0
   -4.2985   -3.8476    0.7050 H   0  0  0  0  0  0  0  0  0  0  0  0
   -3.0460   -4.2383    1.8790 H   0  0  0  0  0  0  0  0  0  0  0  0
    1.2911   -4.8084   -0.4657 H   0  0  0  0  0  0  0  0  0  0  0  0
    2.8284   -4.1780   -1.0459 H   0  0  0  0  0  0  0  0  0  0  0  0
   -2.6132   -3.9136   -1.1369 H   0  0  0  0  0  0  0  0  0  0  0  0
   -1.3452   -4.3306    0.0458 H   0  0  0  0  0  0  0  0  0  0  0  0
    1.5913   -3.5789    1.6907 H   0  0  0  0  0  0  0  0  0  0  0  0
    3.1355   -2.9104    1.0950 H   0  0  0  0  0  0  0  0  0  0  0  0
   -0.3424   -0.1476   -1.5016 H   0  0  0  0  0  0  0  0  0  0  0  0
   -1.7351    0.0294   -0.4200 H   0  0  0  0  0  0  0  0  0  0  0  0
    0.3762    1.9025   -0.0305 H   0  0  0  0  0  0  0  0  0  0  0  0
    1.7607    0.8665   -0.4355 H   0  0  0  0  0  0  0  0  0  0  0  0
   -0.4673    0.0511    1.5018 H   0  0  0  0  0  0  0  0  0  0  0  0
    1.1279    4.8419    1.3889 H   0  0  0  0  0  0  0  0  0  0  0  0
    0.1089    2.7489    3.7591 H   0  0  0  0  0  0  0  0  0  0  0  0
  1  3  1  0
  2  4  1  0
  3  5  1  0
  4  6  1  0
  5  7  1  0
  6  8  1  0
  7  9  1  0
  8 10  1  0
  9 11  1  0
 10 12  1  0
 11 13  1  0
 12 14  1  0
 13 15  1  0
 14 16  1  0
 15 17  1  0
 16 19  1  0
 17 18  2  0
 18 20  1  0
 19 21  1  0
 20 22  1  0
 21 23  1  0
 22 24  1  0
 23 25  1  0
 24 26  1  0
 25 27  1  0
 26 28  1  0
 27 29  1  0
 28 30  1  0
 29 31  1  0
 30 32  1  0
 31 36  1  0
 32 37  1  0
 33 35  1  0
 33 42  1  0
 34 35  1  0
 34 44  1  0
 35 45  1  0
 36 38  2  0
 36 42  1  0
 37 39  2  0
 37 45  1  0
 40 46  2  0
 46 41  1  6
 43 46  1  0
 44 46  1  0
  1 47  1  0
  1 48  1  0
  1 49  1  0
  2 50  1  0
  2 51  1  0
  2 52  1  0
  3 53  1  0
  3 54  1  0
  4 55  1  0
  4 56  1  0
  5 57  1  0
  5 58  1  0
  6 59  1  0
  6 60  1  0
  7 61  1  0
  7 62  1  0
  8 63  1  0
  8 64  1  0
  9 65  1  0
  9 66  1  0
 10 67  1  0
 10 68  1  0
 11 69  1  0
 11 70  1  0
 12 71  1  0
 12 72  1  0
 13 73  1  0
 13 74  1  0
 14 75  1  0
 14 76  1  0
 15 77  1  0
 15 78  1  0
 16 79  1  0
 16 80  1  0
 17 81  1  0
 18 82  1  0
 19 83  1  0
 19 84  1  0
 20 85  1  0
 20 86  1  0
 21 87  1  0
 21 88  1  0
 22 89  1  0
 22 90  1  0
 23 91  1  0
 23 92  1  0
 24 93  1  0
 24 94  1  0
 25 95  1  0
 25 96  1  0
 26 97  1  0
 26 98  1  0
 27 99  1  0
 27100  1  0
 28101  1  0
 28102  1  0
 29103  1  0
 29104  1  0
 30105  1  0
 30106  1  0
 31107  1  0
 31108  1  0
 32109  1  0
 32110  1  0
 33111  1  0
 33112  1  0
 34113  1  0
 34114  1  0
 35115  1  1
 41116  1  0
 43117  1  0
M  END
>  <SOURCE>  (1) 
Identity: PubChem CID 5497103; coordinates: RDKit ETKDGv3/MMFF, extended-tail constrained educational conformer

>  <NOTE>  (1) 
One representative phospholipid. This conformation is illustrative, not an experimentally measured membrane structure.

$$$$
