notebook-bilayer
     RDKit          3D

468464  0  0  0  0  0  0  0  0999 V2000
   -4.6386   -2.1241    4.6634 C   0  0  0  0  0  0  0  0  0  0  0  0
  -27.0149   -1.6629    4.6634 C   0  0  0  0  0  0  0  0  0  0  0  0
   -5.0708   -0.6810    4.4581 C   0  0  0  0  0  0  0  0  0  0  0  0
  -26.8237   -0.1756    4.9148 C   0  0  0  0  0  0  0  0  0  0  0  0
   -6.0913   -0.5575    3.3269 C   0  0  0  0  0  0  0  0  0  0  0  0
  -25.7819    0.4226    3.9697 C   0  0  0  0  0  0  0  0  0  0  0  0
   -6.5234    0.8956    3.1236 C   0  0  0  0  0  0  0  0  0  0  0  0
  -25.5918    1.9185    4.2262 C   0  0  0  0  0  0  0  0  0  0  0  0
   -7.5450    1.0193    1.9920 C   0  0  0  0  0  0  0  0  0  0  0  0
  -24.5489    2.5170    3.2809 C   0  0  0  0  0  0  0  0  0  0  0  0
   -7.9724    2.4731    1.7849 C   0  0  0  0  0  0  0  0  0  0  0  0
  -24.3579    4.0127    3.5384 C   0  0  0  0  0  0  0  0  0  0  0  0
   -8.9947    2.5980    0.6530 C   0  0  0  0  0  0  0  0  0  0  0  0
  -23.3140    4.6107    2.5938 C   0  0  0  0  0  0  0  0  0  0  0  0
   -9.3602    4.0633    0.3965 C   0  0  0  0  0  0  0  0  0  0  0  0
  -23.1201    6.1056    2.8533 C   0  0  0  0  0  0  0  0  0  0  0  0
  -10.3085    4.2086   -0.7612 C   0  0  0  0  0  0  0  0  0  0  0  0
  -11.1975    5.2022   -0.9219 C   0  0  0  0  0  0  0  0  0  0  0  0
  -22.0737    6.7024    1.9108 C   0  0  0  0  0  0  0  0  0  0  0  0
  -11.3659    6.3769    0.0000 C   0  0  0  0  0  0  0  0  0  0  0  0
  -21.8751    8.1960    2.1735 C   0  0  0  0  0  0  0  0  0  0  0  0
  -11.9404    7.5959   -0.7233 C   0  0  0  0  0  0  0  0  0  0  0  0
  -20.8248    8.7906    1.2340 C   0  0  0  0  0  0  0  0  0  0  0  0
  -12.1372    8.7597    0.2486 C   0  0  0  0  0  0  0  0  0  0  0  0
  -20.6195   10.2827    1.5007 C   0  0  0  0  0  0  0  0  0  0  0  0
  -12.8225    9.9417   -0.4334 C   0  0  0  0  0  0  0  0  0  0  0  0
  -19.5642   10.8741    0.5651 C   0  0  0  0  0  0  0  0  0  0  0  0
  -12.9885   11.1139    0.5332 C   0  0  0  0  0  0  0  0  0  0  0  0
  -19.3514   12.3639    0.8356 C   0  0  0  0  0  0  0  0  0  0  0  0
  -13.7160   12.2734   -0.1411 C   0  0  0  0  0  0  0  0  0  0  0  0
  -18.2932   12.9500   -0.0970 C   0  0  0  0  0  0  0  0  0  0  0  0
  -13.8513   13.4711    0.7961 C   0  0  0  0  0  0  0  0  0  0  0  0
  -16.7745   16.2675   -0.5499 C   0  0  0  0  0  0  0  0  0  0  0  0
  -14.9891   17.8375    0.3309 C   0  0  0  0  0  0  0  0  0  0  0  0
  -15.8411   16.6026    0.6239 C   0  0  2  0  0  0  0  0  0  0  0  0
  -18.0586   14.4192    0.1657 C   0  0  0  0  0  0  0  0  0  0  0  0
  -14.5918   14.5932    0.1207 C   0  0  0  0  0  0  0  0  0  0  0  0
  -18.7078   15.1162    0.9324 O   0  0  0  0  0  0  0  0  0  0  0  0
  -14.8225   14.6454   -1.0799 O   0  0  0  0  0  0  0  0  0  0  0  0
  -13.5417   19.9440    3.2256 O   0  0  0  0  0  0  0  0  0  0  0  0
  -14.7020   20.6988    0.9971 O   0  0  0  0  0  0  0  0  0  0  0  0
  -16.9919   14.8425   -0.5672 O   0  0  0  0  0  0  0  0  0  0  0  0
  -15.9767   19.4866    2.7729 O   0  0  0  0  0  0  0  0  0  0  0  0
  -14.2853   18.2117    1.5075 O   0  0  0  0  0  0  0  0  0  0  0  0
  -14.9955   15.4980    1.0480 O   0  0  0  0  0  0  0  0  0  0  0  0
  -14.5112   19.6971    2.0988 P   0  0  2  0  0  5  0  0  0  0  0  0
   -4.1745   -2.5273    3.7576 H   0  0  0  0  0  0  0  0  0  0  0  0
   -5.4937   -2.7566    4.9226 H   0  0  0  0  0  0  0  0  0  0  0  0
   -3.9090   -2.1891    5.4766 H   0  0  0  0  0  0  0  0  0  0  0  0
  -27.7638   -2.0700    5.3499 H   0  0  0  0  0  0  0  0  0  0  0  0
  -26.0796   -2.2103    4.8174 H   0  0  0  0  0  0  0  0  0  0  0  0
  -27.3566   -1.8468    3.6397 H   0  0  0  0  0  0  0  0  0  0  0  0
   -5.5007   -0.2982    5.3910 H   0  0  0  0  0  0  0  0  0  0  0  0
   -4.1890   -0.0701    4.2324 H   0  0  0  0  0  0  0  0  0  0  0  0
  -27.7833    0.3374    4.7843 H   0  0  0  0  0  0  0  0  0  0  0  0
  -26.5134   -0.0240    5.9552 H   0  0  0  0  0  0  0  0  0  0  0  0
   -5.6578   -0.9455    2.3971 H   0  0  0  0  0  0  0  0  0  0  0  0
   -6.9695   -1.1734    3.5555 H   0  0  0  0  0  0  0  0  0  0  0  0
  -26.0952    0.2648    2.9305 H   0  0  0  0  0  0  0  0  0  0  0  0
  -24.8250   -0.0973    4.1011 H   0  0  0  0  0  0  0  0  0  0  0  0
   -6.9565    1.2838    4.0534 H   0  0  0  0  0  0  0  0  0  0  0  0
   -5.6449    1.5111    2.8943 H   0  0  0  0  0  0  0  0  0  0  0  0
  -25.2789    2.0759    5.2656 H   0  0  0  0  0  0  0  0  0  0  0  0
  -26.5486    2.4383    4.0942 H   0  0  0  0  0  0  0  0  0  0  0  0
   -8.4253    0.4071    2.2228 H   0  0  0  0  0  0  0  0  0  0  0  0
   -7.1130    0.6273    1.0631 H   0  0  0  0  0  0  0  0  0  0  0  0
  -24.8621    2.3603    2.2416 H   0  0  0  0  0  0  0  0  0  0  0  0
  -23.5925    1.9966    3.4123 H   0  0  0  0  0  0  0  0  0  0  0  0
   -8.4027    2.8685    2.7130 H   0  0  0  0  0  0  0  0  0  0  0  0
   -7.0901    3.0819    1.5525 H   0  0  0  0  0  0  0  0  0  0  0  0
  -25.3142    4.5334    3.4061 H   0  0  0  0  0  0  0  0  0  0  0  0
  -24.0453    4.1693    4.5780 H   0  0  0  0  0  0  0  0  0  0  0  0
   -9.8973    2.0276    0.9055 H   0  0  0  0  0  0  0  0  0  0  0  0
   -8.5794    2.1545   -0.2610 H   0  0  0  0  0  0  0  0  0  0  0  0
  -23.6276    4.4560    1.5543 H   0  0  0  0  0  0  0  0  0  0  0  0
  -22.3585    4.0883    2.7245 H   0  0  0  0  0  0  0  0  0  0  0  0
   -8.4464    4.6227    0.1627 H   0  0  0  0  0  0  0  0  0  0  0  0
   -9.7900    4.4909    1.3095 H   0  0  0  0  0  0  0  0  0  0  0  0
  -22.8083    6.2602    3.8935 H   0  0  0  0  0  0  0  0  0  0  0  0
  -24.0751    6.6287    2.7208 H   0  0  0  0  0  0  0  0  0  0  0  0
  -10.2669    3.4369   -1.5288 H   0  0  0  0  0  0  0  0  0  0  0  0
  -11.8492    5.1643   -1.7937 H   0  0  0  0  0  0  0  0  0  0  0  0
  -21.1198    6.1766    2.0412 H   0  0  0  0  0  0  0  0  0  0  0  0
  -22.3870    6.5507    0.8706 H   0  0  0  0  0  0  0  0  0  0  0  0
  -12.0506    6.0847    0.8056 H   0  0  0  0  0  0  0  0  0  0  0  0
  -10.4083    6.6500    0.4580 H   0  0  0  0  0  0  0  0  0  0  0  0
  -21.5643    8.3476    3.2145 H   0  0  0  0  0  0  0  0  0  0  0  0
  -22.8277    8.7227    2.0402 H   0  0  0  0  0  0  0  0  0  0  0  0
  -12.9030    7.3346   -1.1810 H   0  0  0  0  0  0  0  0  0  0  0  0
  -11.2697    7.9016   -1.5360 H   0  0  0  0  0  0  0  0  0  0  0  0
  -19.8735    8.2604    1.3643 H   0  0  0  0  0  0  0  0  0  0  0  0
  -21.1372    8.6430    0.1930 H   0  0  0  0  0  0  0  0  0  0  0  0
  -11.1644    9.0725    0.6472 H   0  0  0  0  0  0  0  0  0  0  0  0
  -12.7448    8.4311    1.1009 H   0  0  0  0  0  0  0  0  0  0  0  0
  -21.5693   10.8144    1.3665 H   0  0  0  0  0  0  0  0  0  0  0  0
  -20.3106   10.4303    2.5428 H   0  0  0  0  0  0  0  0  0  0  0  0
  -12.2320   10.2606   -1.3008 H   0  0  0  0  0  0  0  0  0  0  0  0
  -13.8053    9.6298   -0.8079 H   0  0  0  0  0  0  0  0  0  0  0  0
  -18.6161   10.3384    0.6961 H   0  0  0  0  0  0  0  0  0  0  0  0
  -19.8751   10.7308   -0.4770 H   0  0  0  0  0  0  0  0  0  0  0  0
  -13.5522   10.7901    1.4164 H   0  0  0  0  0  0  0  0  0  0  0  0
  -12.0028   11.4463    0.8810 H   0  0  0  0  0  0  0  0  0  0  0  0
  -20.2985   12.9024    0.7050 H   0  0  0  0  0  0  0  0  0  0  0  0
  -19.0460   12.5117    1.8790 H   0  0  0  0  0  0  0  0  0  0  0  0
  -14.7089   11.9416   -0.4657 H   0  0  0  0  0  0  0  0  0  0  0  0
  -13.1716   12.5720   -1.0459 H   0  0  0  0  0  0  0  0  0  0  0  0
  -18.6132   12.8364   -1.1369 H   0  0  0  0  0  0  0  0  0  0  0  0
  -17.3452   12.4194    0.0458 H   0  0  0  0  0  0  0  0  0  0  0  0
  -14.4087   13.1711    1.6907 H   0  0  0  0  0  0  0  0  0  0  0  0
  -12.8645   13.8396    1.0950 H   0  0  0  0  0  0  0  0  0  0  0  0
  -16.3424   16.6024   -1.5016 H   0  0  0  0  0  0  0  0  0  0  0  0
  -17.7351   16.7794   -0.4200 H   0  0  0  0  0  0  0  0  0  0  0  0
  -15.6238   18.6525   -0.0305 H   0  0  0  0  0  0  0  0  0  0  0  0
  -14.2393   17.6165   -0.4355 H   0  0  0  0  0  0  0  0  0  0  0  0
  -16.4673   16.8011    1.5018 H   0  0  0  0  0  0  0  0  0  0  0  0
  -14.8721   21.5919    1.3889 H   0  0  0  0  0  0  0  0  0  0  0  0
  -15.8911   19.4989    3.7591 H   0  0  0  0  0  0  0  0  0  0  0  0
   27.3614   -2.1241    4.6634 C   0  0  0  0  0  0  0  0  0  0  0  0
    4.9851   -1.6629    4.6634 C   0  0  0  0  0  0  0  0  0  0  0  0
   26.9292   -0.6810    4.4581 C   0  0  0  0  0  0  0  0  0  0  0  0
    5.1763   -0.1756    4.9148 C   0  0  0  0  0  0  0  0  0  0  0  0
   25.9087   -0.5575    3.3269 C   0  0  0  0  0  0  0  0  0  0  0  0
    6.2181    0.4226    3.9697 C   0  0  0  0  0  0  0  0  0  0  0  0
   25.4766    0.8956    3.1236 C   0  0  0  0  0  0  0  0  0  0  0  0
    6.4082    1.9185    4.2262 C   0  0  0  0  0  0  0  0  0  0  0  0
   24.4550    1.0193    1.9920 C   0  0  0  0  0  0  0  0  0  0  0  0
    7.4511    2.5170    3.2809 C   0  0  0  0  0  0  0  0  0  0  0  0
   24.0276    2.4731    1.7849 C   0  0  0  0  0  0  0  0  0  0  0  0
    7.6421    4.0127    3.5384 C   0  0  0  0  0  0  0  0  0  0  0  0
   23.0053    2.5980    0.6530 C   0  0  0  0  0  0  0  0  0  0  0  0
    8.6860    4.6107    2.5938 C   0  0  0  0  0  0  0  0  0  0  0  0
   22.6398    4.0633    0.3965 C   0  0  0  0  0  0  0  0  0  0  0  0
    8.8799    6.1056    2.8533 C   0  0  0  0  0  0  0  0  0  0  0  0
   21.6915    4.2086   -0.7612 C   0  0  0  0  0  0  0  0  0  0  0  0
   20.8025    5.2022   -0.9219 C   0  0  0  0  0  0  0  0  0  0  0  0
    9.9263    6.7024    1.9108 C   0  0  0  0  0  0  0  0  0  0  0  0
   20.6341    6.3769    0.0000 C   0  0  0  0  0  0  0  0  0  0  0  0
   10.1249    8.1960    2.1735 C   0  0  0  0  0  0  0  0  0  0  0  0
   20.0596    7.5959   -0.7233 C   0  0  0  0  0  0  0  0  0  0  0  0
   11.1752    8.7906    1.2340 C   0  0  0  0  0  0  0  0  0  0  0  0
   19.8628    8.7597    0.2486 C   0  0  0  0  0  0  0  0  0  0  0  0
   11.3805   10.2827    1.5007 C   0  0  0  0  0  0  0  0  0  0  0  0
   19.1775    9.9417   -0.4334 C   0  0  0  0  0  0  0  0  0  0  0  0
   12.4358   10.8741    0.5651 C   0  0  0  0  0  0  0  0  0  0  0  0
   19.0115   11.1139    0.5332 C   0  0  0  0  0  0  0  0  0  0  0  0
   12.6486   12.3639    0.8356 C   0  0  0  0  0  0  0  0  0  0  0  0
   18.2840   12.2734   -0.1411 C   0  0  0  0  0  0  0  0  0  0  0  0
   13.7068   12.9500   -0.0970 C   0  0  0  0  0  0  0  0  0  0  0  0
   18.1487   13.4711    0.7961 C   0  0  0  0  0  0  0  0  0  0  0  0
   15.2255   16.2675   -0.5499 C   0  0  0  0  0  0  0  0  0  0  0  0
   17.0109   17.8375    0.3309 C   0  0  0  0  0  0  0  0  0  0  0  0
   16.1589   16.6026    0.6239 C   0  0  2  0  0  0  0  0  0  0  0  0
   13.9414   14.4192    0.1657 C   0  0  0  0  0  0  0  0  0  0  0  0
   17.4082   14.5932    0.1207 C   0  0  0  0  0  0  0  0  0  0  0  0
   13.2922   15.1162    0.9324 O   0  0  0  0  0  0  0  0  0  0  0  0
   17.1775   14.6454   -1.0799 O   0  0  0  0  0  0  0  0  0  0  0  0
   18.4583   19.9440    3.2256 O   0  0  0  0  0  0  0  0  0  0  0  0
   17.2980   20.6988    0.9971 O   0  0  0  0  0  0  0  0  0  0  0  0
   15.0081   14.8425   -0.5672 O   0  0  0  0  0  0  0  0  0  0  0  0
   16.0233   19.4866    2.7729 O   0  0  0  0  0  0  0  0  0  0  0  0
   17.7147   18.2117    1.5075 O   0  0  0  0  0  0  0  0  0  0  0  0
   17.0045   15.4980    1.0480 O   0  0  0  0  0  0  0  0  0  0  0  0
   17.4888   19.6971    2.0988 P   0  0  2  0  0  5  0  0  0  0  0  0
   27.8255   -2.5273    3.7576 H   0  0  0  0  0  0  0  0  0  0  0  0
   26.5063   -2.7566    4.9226 H   0  0  0  0  0  0  0  0  0  0  0  0
   28.0910   -2.1891    5.4766 H   0  0  0  0  0  0  0  0  0  0  0  0
    4.2362   -2.0700    5.3499 H   0  0  0  0  0  0  0  0  0  0  0  0
    5.9204   -2.2103    4.8174 H   0  0  0  0  0  0  0  0  0  0  0  0
    4.6434   -1.8468    3.6397 H   0  0  0  0  0  0  0  0  0  0  0  0
   26.4993   -0.2982    5.3910 H   0  0  0  0  0  0  0  0  0  0  0  0
   27.8110   -0.0701    4.2324 H   0  0  0  0  0  0  0  0  0  0  0  0
    4.2167    0.3374    4.7843 H   0  0  0  0  0  0  0  0  0  0  0  0
    5.4866   -0.0240    5.9552 H   0  0  0  0  0  0  0  0  0  0  0  0
   26.3422   -0.9455    2.3971 H   0  0  0  0  0  0  0  0  0  0  0  0
   25.0305   -1.1734    3.5555 H   0  0  0  0  0  0  0  0  0  0  0  0
    5.9048    0.2648    2.9305 H   0  0  0  0  0  0  0  0  0  0  0  0
    7.1750   -0.0973    4.1011 H   0  0  0  0  0  0  0  0  0  0  0  0
   25.0435    1.2838    4.0534 H   0  0  0  0  0  0  0  0  0  0  0  0
   26.3551    1.5111    2.8943 H   0  0  0  0  0  0  0  0  0  0  0  0
    6.7211    2.0759    5.2656 H   0  0  0  0  0  0  0  0  0  0  0  0
    5.4514    2.4383    4.0942 H   0  0  0  0  0  0  0  0  0  0  0  0
   23.5747    0.4071    2.2228 H   0  0  0  0  0  0  0  0  0  0  0  0
   24.8870    0.6273    1.0631 H   0  0  0  0  0  0  0  0  0  0  0  0
    7.1379    2.3603    2.2416 H   0  0  0  0  0  0  0  0  0  0  0  0
    8.4075    1.9966    3.4123 H   0  0  0  0  0  0  0  0  0  0  0  0
   23.5973    2.8685    2.7130 H   0  0  0  0  0  0  0  0  0  0  0  0
   24.9099    3.0819    1.5525 H   0  0  0  0  0  0  0  0  0  0  0  0
    6.6858    4.5334    3.4061 H   0  0  0  0  0  0  0  0  0  0  0  0
    7.9547    4.1693    4.5780 H   0  0  0  0  0  0  0  0  0  0  0  0
   22.1027    2.0276    0.9055 H   0  0  0  0  0  0  0  0  0  0  0  0
   23.4206    2.1545   -0.2610 H   0  0  0  0  0  0  0  0  0  0  0  0
    8.3724    4.4560    1.5543 H   0  0  0  0  0  0  0  0  0  0  0  0
    9.6415    4.0883    2.7245 H   0  0  0  0  0  0  0  0  0  0  0  0
   23.5536    4.6227    0.1627 H   0  0  0  0  0  0  0  0  0  0  0  0
   22.2100    4.4909    1.3095 H   0  0  0  0  0  0  0  0  0  0  0  0
    9.1917    6.2602    3.8935 H   0  0  0  0  0  0  0  0  0  0  0  0
    7.9249    6.6287    2.7208 H   0  0  0  0  0  0  0  0  0  0  0  0
   21.7331    3.4369   -1.5288 H   0  0  0  0  0  0  0  0  0  0  0  0
   20.1508    5.1643   -1.7937 H   0  0  0  0  0  0  0  0  0  0  0  0
   10.8802    6.1766    2.0412 H   0  0  0  0  0  0  0  0  0  0  0  0
    9.6130    6.5507    0.8706 H   0  0  0  0  0  0  0  0  0  0  0  0
   19.9494    6.0847    0.8056 H   0  0  0  0  0  0  0  0  0  0  0  0
   21.5917    6.6500    0.4580 H   0  0  0  0  0  0  0  0  0  0  0  0
   10.4357    8.3476    3.2145 H   0  0  0  0  0  0  0  0  0  0  0  0
    9.1723    8.7227    2.0402 H   0  0  0  0  0  0  0  0  0  0  0  0
   19.0970    7.3346   -1.1810 H   0  0  0  0  0  0  0  0  0  0  0  0
   20.7303    7.9016   -1.5360 H   0  0  0  0  0  0  0  0  0  0  0  0
   12.1265    8.2604    1.3643 H   0  0  0  0  0  0  0  0  0  0  0  0
   10.8628    8.6430    0.1930 H   0  0  0  0  0  0  0  0  0  0  0  0
   20.8356    9.0725    0.6472 H   0  0  0  0  0  0  0  0  0  0  0  0
   19.2552    8.4311    1.1009 H   0  0  0  0  0  0  0  0  0  0  0  0
   10.4307   10.8144    1.3665 H   0  0  0  0  0  0  0  0  0  0  0  0
   11.6894   10.4303    2.5428 H   0  0  0  0  0  0  0  0  0  0  0  0
   19.7680   10.2606   -1.3008 H   0  0  0  0  0  0  0  0  0  0  0  0
   18.1947    9.6298   -0.8079 H   0  0  0  0  0  0  0  0  0  0  0  0
   13.3839   10.3384    0.6961 H   0  0  0  0  0  0  0  0  0  0  0  0
   12.1249   10.7308   -0.4770 H   0  0  0  0  0  0  0  0  0  0  0  0
   18.4478   10.7901    1.4164 H   0  0  0  0  0  0  0  0  0  0  0  0
   19.9972   11.4463    0.8810 H   0  0  0  0  0  0  0  0  0  0  0  0
   11.7015   12.9024    0.7050 H   0  0  0  0  0  0  0  0  0  0  0  0
   12.9540   12.5117    1.8790 H   0  0  0  0  0  0  0  0  0  0  0  0
   17.2911   11.9416   -0.4657 H   0  0  0  0  0  0  0  0  0  0  0  0
   18.8284   12.5720   -1.0459 H   0  0  0  0  0  0  0  0  0  0  0  0
   13.3868   12.8364   -1.1369 H   0  0  0  0  0  0  0  0  0  0  0  0
   14.6548   12.4194    0.0458 H   0  0  0  0  0  0  0  0  0  0  0  0
   17.5913   13.1711    1.6907 H   0  0  0  0  0  0  0  0  0  0  0  0
   19.1355   13.8396    1.0950 H   0  0  0  0  0  0  0  0  0  0  0  0
   15.6576   16.6024   -1.5016 H   0  0  0  0  0  0  0  0  0  0  0  0
   14.2649   16.7794   -0.4200 H   0  0  0  0  0  0  0  0  0  0  0  0
   16.3762   18.6525   -0.0305 H   0  0  0  0  0  0  0  0  0  0  0  0
   17.7607   17.6165   -0.4355 H   0  0  0  0  0  0  0  0  0  0  0  0
   15.5327   16.8011    1.5018 H   0  0  0  0  0  0  0  0  0  0  0  0
   17.1279   21.5919    1.3889 H   0  0  0  0  0  0  0  0  0  0  0  0
   16.1089   19.4989    3.7591 H   0  0  0  0  0  0  0  0  0  0  0  0
   -4.6386    2.1241   -4.6634 C   0  0  0  0  0  0  0  0  0  0  0  0
  -27.0149    1.6629   -4.6634 C   0  0  0  0  0  0  0  0  0  0  0  0
   -5.0708    0.6810   -4.4581 C   0  0  0  0  0  0  0  0  0  0  0  0
  -26.8237    0.1756   -4.9148 C   0  0  0  0  0  0  0  0  0  0  0  0
   -6.0913    0.5575   -3.3269 C   0  0  0  0  0  0  0  0  0  0  0  0
  -25.7819   -0.4226   -3.9697 C   0  0  0  0  0  0  0  0  0  0  0  0
   -6.5234   -0.8956   -3.1236 C   0  0  0  0  0  0  0  0  0  0  0  0
  -25.5918   -1.9185   -4.2262 C   0  0  0  0  0  0  0  0  0  0  0  0
   -7.5450   -1.0193   -1.9920 C   0  0  0  0  0  0  0  0  0  0  0  0
  -24.5489   -2.5170   -3.2809 C   0  0  0  0  0  0  0  0  0  0  0  0
   -7.9724   -2.4731   -1.7849 C   0  0  0  0  0  0  0  0  0  0  0  0
  -24.3579   -4.0127   -3.5384 C   0  0  0  0  0  0  0  0  0  0  0  0
   -8.9947   -2.5980   -0.6530 C   0  0  0  0  0  0  0  0  0  0  0  0
  -23.3140   -4.6107   -2.5938 C   0  0  0  0  0  0  0  0  0  0  0  0
   -9.3602   -4.0633   -0.3965 C   0  0  0  0  0  0  0  0  0  0  0  0
  -23.1201   -6.1056   -2.8533 C   0  0  0  0  0  0  0  0  0  0  0  0
  -10.3085   -4.2086    0.7612 C   0  0  0  0  0  0  0  0  0  0  0  0
  -11.1975   -5.2022    0.9219 C   0  0  0  0  0  0  0  0  0  0  0  0
  -22.0737   -6.7024   -1.9108 C   0  0  0  0  0  0  0  0  0  0  0  0
  -11.3659   -6.3769    0.0000 C   0  0  0  0  0  0  0  0  0  0  0  0
  -21.8751   -8.1960   -2.1735 C   0  0  0  0  0  0  0  0  0  0  0  0
  -11.9404   -7.5959    0.7233 C   0  0  0  0  0  0  0  0  0  0  0  0
  -20.8248   -8.7906   -1.2340 C   0  0  0  0  0  0  0  0  0  0  0  0
  -12.1372   -8.7597   -0.2486 C   0  0  0  0  0  0  0  0  0  0  0  0
  -20.6195  -10.2827   -1.5007 C   0  0  0  0  0  0  0  0  0  0  0  0
  -12.8225   -9.9417    0.4334 C   0  0  0  0  0  0  0  0  0  0  0  0
  -19.5642  -10.8741   -0.5651 C   0  0  0  0  0  0  0  0  0  0  0  0
  -12.9885  -11.1139   -0.5332 C   0  0  0  0  0  0  0  0  0  0  0  0
  -19.3514  -12.3639   -0.8356 C   0  0  0  0  0  0  0  0  0  0  0  0
  -13.7160  -12.2734    0.1411 C   0  0  0  0  0  0  0  0  0  0  0  0
  -18.2932  -12.9500    0.0970 C   0  0  0  0  0  0  0  0  0  0  0  0
  -13.8513  -13.4711   -0.7961 C   0  0  0  0  0  0  0  0  0  0  0  0
  -16.7745  -16.2675    0.5499 C   0  0  0  0  0  0  0  0  0  0  0  0
  -14.9891  -17.8375   -0.3309 C   0  0  0  0  0  0  0  0  0  0  0  0
  -15.8411  -16.6026   -0.6239 C   0  0  2  0  0  0  0  0  0  0  0  0
  -18.0586  -14.4192   -0.1657 C   0  0  0  0  0  0  0  0  0  0  0  0
  -14.5918  -14.5932   -0.1207 C   0  0  0  0  0  0  0  0  0  0  0  0
  -18.7078  -15.1162   -0.9324 O   0  0  0  0  0  0  0  0  0  0  0  0
  -14.8225  -14.6454    1.0799 O   0  0  0  0  0  0  0  0  0  0  0  0
  -13.5417  -19.9440   -3.2256 O   0  0  0  0  0  0  0  0  0  0  0  0
  -14.7020  -20.6988   -0.9971 O   0  0  0  0  0  0  0  0  0  0  0  0
  -16.9919  -14.8425    0.5672 O   0  0  0  0  0  0  0  0  0  0  0  0
  -15.9767  -19.4866   -2.7729 O   0  0  0  0  0  0  0  0  0  0  0  0
  -14.2853  -18.2117   -1.5075 O   0  0  0  0  0  0  0  0  0  0  0  0
  -14.9955  -15.4980   -1.0480 O   0  0  0  0  0  0  0  0  0  0  0  0
  -14.5112  -19.6971   -2.0988 P   0  0  2  0  0  5  0  0  0  0  0  0
   -4.1745    2.5273   -3.7576 H   0  0  0  0  0  0  0  0  0  0  0  0
   -5.4937    2.7566   -4.9226 H   0  0  0  0  0  0  0  0  0  0  0  0
   -3.9090    2.1891   -5.4766 H   0  0  0  0  0  0  0  0  0  0  0  0
  -27.7638    2.0700   -5.3499 H   0  0  0  0  0  0  0  0  0  0  0  0
  -26.0796    2.2103   -4.8174 H   0  0  0  0  0  0  0  0  0  0  0  0
  -27.3566    1.8468   -3.6397 H   0  0  0  0  0  0  0  0  0  0  0  0
   -5.5007    0.2982   -5.3910 H   0  0  0  0  0  0  0  0  0  0  0  0
   -4.1890    0.0701   -4.2324 H   0  0  0  0  0  0  0  0  0  0  0  0
  -27.7833   -0.3374   -4.7843 H   0  0  0  0  0  0  0  0  0  0  0  0
  -26.5134    0.0240   -5.9552 H   0  0  0  0  0  0  0  0  0  0  0  0
   -5.6578    0.9455   -2.3971 H   0  0  0  0  0  0  0  0  0  0  0  0
   -6.9695    1.1734   -3.5555 H   0  0  0  0  0  0  0  0  0  0  0  0
  -26.0952   -0.2648   -2.9305 H   0  0  0  0  0  0  0  0  0  0  0  0
  -24.8250    0.0973   -4.1011 H   0  0  0  0  0  0  0  0  0  0  0  0
   -6.9565   -1.2838   -4.0534 H   0  0  0  0  0  0  0  0  0  0  0  0
   -5.6449   -1.5111   -2.8943 H   0  0  0  0  0  0  0  0  0  0  0  0
  -25.2789   -2.0759   -5.2656 H   0  0  0  0  0  0  0  0  0  0  0  0
  -26.5486   -2.4383   -4.0942 H   0  0  0  0  0  0  0  0  0  0  0  0
   -8.4253   -0.4071   -2.2228 H   0  0  0  0  0  0  0  0  0  0  0  0
   -7.1130   -0.6273   -1.0631 H   0  0  0  0  0  0  0  0  0  0  0  0
  -24.8621   -2.3603   -2.2416 H   0  0  0  0  0  0  0  0  0  0  0  0
  -23.5925   -1.9966   -3.4123 H   0  0  0  0  0  0  0  0  0  0  0  0
   -8.4027   -2.8685   -2.7130 H   0  0  0  0  0  0  0  0  0  0  0  0
   -7.0901   -3.0819   -1.5525 H   0  0  0  0  0  0  0  0  0  0  0  0
  -25.3142   -4.5334   -3.4061 H   0  0  0  0  0  0  0  0  0  0  0  0
  -24.0453   -4.1693   -4.5780 H   0  0  0  0  0  0  0  0  0  0  0  0
   -9.8973   -2.0276   -0.9055 H   0  0  0  0  0  0  0  0  0  0  0  0
   -8.5794   -2.1545    0.2610 H   0  0  0  0  0  0  0  0  0  0  0  0
  -23.6276   -4.4560   -1.5543 H   0  0  0  0  0  0  0  0  0  0  0  0
  -22.3585   -4.0883   -2.7245 H   0  0  0  0  0  0  0  0  0  0  0  0
   -8.4464   -4.6227   -0.1627 H   0  0  0  0  0  0  0  0  0  0  0  0
   -9.7900   -4.4909   -1.3095 H   0  0  0  0  0  0  0  0  0  0  0  0
  -22.8083   -6.2602   -3.8935 H   0  0  0  0  0  0  0  0  0  0  0  0
  -24.0751   -6.6287   -2.7208 H   0  0  0  0  0  0  0  0  0  0  0  0
  -10.2669   -3.4369    1.5288 H   0  0  0  0  0  0  0  0  0  0  0  0
  -11.8492   -5.1643    1.7937 H   0  0  0  0  0  0  0  0  0  0  0  0
  -21.1198   -6.1766   -2.0412 H   0  0  0  0  0  0  0  0  0  0  0  0
  -22.3870   -6.5507   -0.8706 H   0  0  0  0  0  0  0  0  0  0  0  0
  -12.0506   -6.0847   -0.8056 H   0  0  0  0  0  0  0  0  0  0  0  0
  -10.4083   -6.6500   -0.4580 H   0  0  0  0  0  0  0  0  0  0  0  0
  -21.5643   -8.3476   -3.2145 H   0  0  0  0  0  0  0  0  0  0  0  0
  -22.8277   -8.7227   -2.0402 H   0  0  0  0  0  0  0  0  0  0  0  0
  -12.9030   -7.3346    1.1810 H   0  0  0  0  0  0  0  0  0  0  0  0
  -11.2697   -7.9016    1.5360 H   0  0  0  0  0  0  0  0  0  0  0  0
  -19.8735   -8.2604   -1.3643 H   0  0  0  0  0  0  0  0  0  0  0  0
  -21.1372   -8.6430   -0.1930 H   0  0  0  0  0  0  0  0  0  0  0  0
  -11.1644   -9.0725   -0.6472 H   0  0  0  0  0  0  0  0  0  0  0  0
  -12.7448   -8.4311   -1.1009 H   0  0  0  0  0  0  0  0  0  0  0  0
  -21.5693  -10.8144   -1.3665 H   0  0  0  0  0  0  0  0  0  0  0  0
  -20.3106  -10.4303   -2.5428 H   0  0  0  0  0  0  0  0  0  0  0  0
  -12.2320  -10.2606    1.3008 H   0  0  0  0  0  0  0  0  0  0  0  0
  -13.8053   -9.6298    0.8079 H   0  0  0  0  0  0  0  0  0  0  0  0
  -18.6161  -10.3384   -0.6961 H   0  0  0  0  0  0  0  0  0  0  0  0
  -19.8751  -10.7308    0.4770 H   0  0  0  0  0  0  0  0  0  0  0  0
  -13.5522  -10.7901   -1.4164 H   0  0  0  0  0  0  0  0  0  0  0  0
  -12.0028  -11.4463   -0.8810 H   0  0  0  0  0  0  0  0  0  0  0  0
  -20.2985  -12.9024   -0.7050 H   0  0  0  0  0  0  0  0  0  0  0  0
  -19.0460  -12.5117   -1.8790 H   0  0  0  0  0  0  0  0  0  0  0  0
  -14.7089  -11.9416    0.4657 H   0  0  0  0  0  0  0  0  0  0  0  0
  -13.1716  -12.5720    1.0459 H   0  0  0  0  0  0  0  0  0  0  0  0
  -18.6132  -12.8364    1.1369 H   0  0  0  0  0  0  0  0  0  0  0  0
  -17.3452  -12.4194   -0.0458 H   0  0  0  0  0  0  0  0  0  0  0  0
  -14.4087  -13.1711   -1.6907 H   0  0  0  0  0  0  0  0  0  0  0  0
  -12.8645  -13.8396   -1.0950 H   0  0  0  0  0  0  0  0  0  0  0  0
  -16.3424  -16.6024    1.5016 H   0  0  0  0  0  0  0  0  0  0  0  0
  -17.7351  -16.7794    0.4200 H   0  0  0  0  0  0  0  0  0  0  0  0
  -15.6238  -18.6525    0.0305 H   0  0  0  0  0  0  0  0  0  0  0  0
  -14.2393  -17.6165    0.4355 H   0  0  0  0  0  0  0  0  0  0  0  0
  -16.4673  -16.8011   -1.5018 H   0  0  0  0  0  0  0  0  0  0  0  0
  -14.8721  -21.5919   -1.3889 H   0  0  0  0  0  0  0  0  0  0  0  0
  -15.8911  -19.4989   -3.7591 H   0  0  0  0  0  0  0  0  0  0  0  0
   27.3614    2.1241   -4.6634 C   0  0  0  0  0  0  0  0  0  0  0  0
    4.9851    1.6629   -4.6634 C   0  0  0  0  0  0  0  0  0  0  0  0
   26.9292    0.6810   -4.4581 C   0  0  0  0  0  0  0  0  0  0  0  0
    5.1763    0.1756   -4.9148 C   0  0  0  0  0  0  0  0  0  0  0  0
   25.9087    0.5575   -3.3269 C   0  0  0  0  0  0  0  0  0  0  0  0
    6.2181   -0.4226   -3.9697 C   0  0  0  0  0  0  0  0  0  0  0  0
   25.4766   -0.8956   -3.1236 C   0  0  0  0  0  0  0  0  0  0  0  0
    6.4082   -1.9185   -4.2262 C   0  0  0  0  0  0  0  0  0  0  0  0
   24.4550   -1.0193   -1.9920 C   0  0  0  0  0  0  0  0  0  0  0  0
    7.4511   -2.5170   -3.2809 C   0  0  0  0  0  0  0  0  0  0  0  0
   24.0276   -2.4731   -1.7849 C   0  0  0  0  0  0  0  0  0  0  0  0
    7.6421   -4.0127   -3.5384 C   0  0  0  0  0  0  0  0  0  0  0  0
   23.0053   -2.5980   -0.6530 C   0  0  0  0  0  0  0  0  0  0  0  0
    8.6860   -4.6107   -2.5938 C   0  0  0  0  0  0  0  0  0  0  0  0
   22.6398   -4.0633   -0.3965 C   0  0  0  0  0  0  0  0  0  0  0  0
    8.8799   -6.1056   -2.8533 C   0  0  0  0  0  0  0  0  0  0  0  0
   21.6915   -4.2086    0.7612 C   0  0  0  0  0  0  0  0  0  0  0  0
   20.8025   -5.2022    0.9219 C   0  0  0  0  0  0  0  0  0  0  0  0
    9.9263   -6.7024   -1.9108 C   0  0  0  0  0  0  0  0  0  0  0  0
   20.6341   -6.3769    0.0000 C   0  0  0  0  0  0  0  0  0  0  0  0
   10.1249   -8.1960   -2.1735 C   0  0  0  0  0  0  0  0  0  0  0  0
   20.0596   -7.5959    0.7233 C   0  0  0  0  0  0  0  0  0  0  0  0
   11.1752   -8.7906   -1.2340 C   0  0  0  0  0  0  0  0  0  0  0  0
   19.8628   -8.7597   -0.2486 C   0  0  0  0  0  0  0  0  0  0  0  0
   11.3805  -10.2827   -1.5007 C   0  0  0  0  0  0  0  0  0  0  0  0
   19.1775   -9.9417    0.4334 C   0  0  0  0  0  0  0  0  0  0  0  0
   12.4358  -10.8741   -0.5651 C   0  0  0  0  0  0  0  0  0  0  0  0
   19.0115  -11.1139   -0.5332 C   0  0  0  0  0  0  0  0  0  0  0  0
   12.6486  -12.3639   -0.8356 C   0  0  0  0  0  0  0  0  0  0  0  0
   18.2840  -12.2734    0.1411 C   0  0  0  0  0  0  0  0  0  0  0  0
   13.7068  -12.9500    0.0970 C   0  0  0  0  0  0  0  0  0  0  0  0
   18.1487  -13.4711   -0.7961 C   0  0  0  0  0  0  0  0  0  0  0  0
   15.2255  -16.2675    0.5499 C   0  0  0  0  0  0  0  0  0  0  0  0
   17.0109  -17.8375   -0.3309 C   0  0  0  0  0  0  0  0  0  0  0  0
   16.1589  -16.6026   -0.6239 C   0  0  2  0  0  0  0  0  0  0  0  0
   13.9414  -14.4192   -0.1657 C   0  0  0  0  0  0  0  0  0  0  0  0
   17.4082  -14.5932   -0.1207 C   0  0  0  0  0  0  0  0  0  0  0  0
   13.2922  -15.1162   -0.9324 O   0  0  0  0  0  0  0  0  0  0  0  0
   17.1775  -14.6454    1.0799 O   0  0  0  0  0  0  0  0  0  0  0  0
   18.4583  -19.9440   -3.2256 O   0  0  0  0  0  0  0  0  0  0  0  0
   17.2980  -20.6988   -0.9971 O   0  0  0  0  0  0  0  0  0  0  0  0
   15.0081  -14.8425    0.5672 O   0  0  0  0  0  0  0  0  0  0  0  0
   16.0233  -19.4866   -2.7729 O   0  0  0  0  0  0  0  0  0  0  0  0
   17.7147  -18.2117   -1.5075 O   0  0  0  0  0  0  0  0  0  0  0  0
   17.0045  -15.4980   -1.0480 O   0  0  0  0  0  0  0  0  0  0  0  0
   17.4888  -19.6971   -2.0988 P   0  0  2  0  0  5  0  0  0  0  0  0
   27.8255    2.5273   -3.7576 H   0  0  0  0  0  0  0  0  0  0  0  0
   26.5063    2.7566   -4.9226 H   0  0  0  0  0  0  0  0  0  0  0  0
   28.0910    2.1891   -5.4766 H   0  0  0  0  0  0  0  0  0  0  0  0
    4.2362    2.0700   -5.3499 H   0  0  0  0  0  0  0  0  0  0  0  0
    5.9204    2.2103   -4.8174 H   0  0  0  0  0  0  0  0  0  0  0  0
    4.6434    1.8468   -3.6397 H   0  0  0  0  0  0  0  0  0  0  0  0
   26.4993    0.2982   -5.3910 H   0  0  0  0  0  0  0  0  0  0  0  0
   27.8110    0.0701   -4.2324 H   0  0  0  0  0  0  0  0  0  0  0  0
    4.2167   -0.3374   -4.7843 H   0  0  0  0  0  0  0  0  0  0  0  0
    5.4866    0.0240   -5.9552 H   0  0  0  0  0  0  0  0  0  0  0  0
   26.3422    0.9455   -2.3971 H   0  0  0  0  0  0  0  0  0  0  0  0
   25.0305    1.1734   -3.5555 H   0  0  0  0  0  0  0  0  0  0  0  0
    5.9048   -0.2648   -2.9305 H   0  0  0  0  0  0  0  0  0  0  0  0
    7.1750    0.0973   -4.1011 H   0  0  0  0  0  0  0  0  0  0  0  0
   25.0435   -1.2838   -4.0534 H   0  0  0  0  0  0  0  0  0  0  0  0
   26.3551   -1.5111   -2.8943 H   0  0  0  0  0  0  0  0  0  0  0  0
    6.7211   -2.0759   -5.2656 H   0  0  0  0  0  0  0  0  0  0  0  0
    5.4514   -2.4383   -4.0942 H   0  0  0  0  0  0  0  0  0  0  0  0
   23.5747   -0.4071   -2.2228 H   0  0  0  0  0  0  0  0  0  0  0  0
   24.8870   -0.6273   -1.0631 H   0  0  0  0  0  0  0  0  0  0  0  0
    7.1379   -2.3603   -2.2416 H   0  0  0  0  0  0  0  0  0  0  0  0
    8.4075   -1.9966   -3.4123 H   0  0  0  0  0  0  0  0  0  0  0  0
   23.5973   -2.8685   -2.7130 H   0  0  0  0  0  0  0  0  0  0  0  0
   24.9099   -3.0819   -1.5525 H   0  0  0  0  0  0  0  0  0  0  0  0
    6.6858   -4.5334   -3.4061 H   0  0  0  0  0  0  0  0  0  0  0  0
    7.9547   -4.1693   -4.5780 H   0  0  0  0  0  0  0  0  0  0  0  0
   22.1027   -2.0276   -0.9055 H   0  0  0  0  0  0  0  0  0  0  0  0
   23.4206   -2.1545    0.2610 H   0  0  0  0  0  0  0  0  0  0  0  0
    8.3724   -4.4560   -1.5543 H   0  0  0  0  0  0  0  0  0  0  0  0
    9.6415   -4.0883   -2.7245 H   0  0  0  0  0  0  0  0  0  0  0  0
   23.5536   -4.6227   -0.1627 H   0  0  0  0  0  0  0  0  0  0  0  0
   22.2100   -4.4909   -1.3095 H   0  0  0  0  0  0  0  0  0  0  0  0
    9.1917   -6.2602   -3.8935 H   0  0  0  0  0  0  0  0  0  0  0  0
    7.9249   -6.6287   -2.7208 H   0  0  0  0  0  0  0  0  0  0  0  0
   21.7331   -3.4369    1.5288 H   0  0  0  0  0  0  0  0  0  0  0  0
   20.1508   -5.1643    1.7937 H   0  0  0  0  0  0  0  0  0  0  0  0
   10.8802   -6.1766   -2.0412 H   0  0  0  0  0  0  0  0  0  0  0  0
    9.6130   -6.5507   -0.8706 H   0  0  0  0  0  0  0  0  0  0  0  0
   19.9494   -6.0847   -0.8056 H   0  0  0  0  0  0  0  0  0  0  0  0
   21.5917   -6.6500   -0.4580 H   0  0  0  0  0  0  0  0  0  0  0  0
   10.4357   -8.3476   -3.2145 H   0  0  0  0  0  0  0  0  0  0  0  0
    9.1723   -8.7227   -2.0402 H   0  0  0  0  0  0  0  0  0  0  0  0
   19.0970   -7.3346    1.1810 H   0  0  0  0  0  0  0  0  0  0  0  0
   20.7303   -7.9016    1.5360 H   0  0  0  0  0  0  0  0  0  0  0  0
   12.1265   -8.2604   -1.3643 H   0  0  0  0  0  0  0  0  0  0  0  0
   10.8628   -8.6430   -0.1930 H   0  0  0  0  0  0  0  0  0  0  0  0
   20.8356   -9.0725   -0.6472 H   0  0  0  0  0  0  0  0  0  0  0  0
   19.2552   -8.4311   -1.1009 H   0  0  0  0  0  0  0  0  0  0  0  0
   10.4307  -10.8144   -1.3665 H   0  0  0  0  0  0  0  0  0  0  0  0
   11.6894  -10.4303   -2.5428 H   0  0  0  0  0  0  0  0  0  0  0  0
   19.7680  -10.2606    1.3008 H   0  0  0  0  0  0  0  0  0  0  0  0
   18.1947   -9.6298    0.8079 H   0  0  0  0  0  0  0  0  0  0  0  0
   13.3839  -10.3384   -0.6961 H   0  0  0  0  0  0  0  0  0  0  0  0
   12.1249  -10.7308    0.4770 H   0  0  0  0  0  0  0  0  0  0  0  0
   18.4478  -10.7901   -1.4164 H   0  0  0  0  0  0  0  0  0  0  0  0
   19.9972  -11.4463   -0.8810 H   0  0  0  0  0  0  0  0  0  0  0  0
   11.7015  -12.9024   -0.7050 H   0  0  0  0  0  0  0  0  0  0  0  0
   12.9540  -12.5117   -1.8790 H   0  0  0  0  0  0  0  0  0  0  0  0
   17.2911  -11.9416    0.4657 H   0  0  0  0  0  0  0  0  0  0  0  0
   18.8284  -12.5720    1.0459 H   0  0  0  0  0  0  0  0  0  0  0  0
   13.3868  -12.8364    1.1369 H   0  0  0  0  0  0  0  0  0  0  0  0
   14.6548  -12.4194   -0.0458 H   0  0  0  0  0  0  0  0  0  0  0  0
   17.5913  -13.1711   -1.6907 H   0  0  0  0  0  0  0  0  0  0  0  0
   19.1355  -13.8396   -1.0950 H   0  0  0  0  0  0  0  0  0  0  0  0
   15.6576  -16.6024    1.5016 H   0  0  0  0  0  0  0  0  0  0  0  0
   14.2649  -16.7794    0.4200 H   0  0  0  0  0  0  0  0  0  0  0  0
   16.3762  -18.6525    0.0305 H   0  0  0  0  0  0  0  0  0  0  0  0
   17.7607  -17.6165    0.4355 H   0  0  0  0  0  0  0  0  0  0  0  0
   15.5327  -16.8011   -1.5018 H   0  0  0  0  0  0  0  0  0  0  0  0
   17.1279  -21.5919   -1.3889 H   0  0  0  0  0  0  0  0  0  0  0  0
   16.1089  -19.4989   -3.7591 H   0  0  0  0  0  0  0  0  0  0  0  0
  1  3  1  0
  2  4  1  0
  3  5  1  0
  4  6  1  0
  5  7  1  0
  6  8  1  0
  7  9  1  0
  8 10  1  0
  9 11  1  0
 10 12  1  0
 11 13  1  0
 12 14  1  0
 13 15  1  0
 14 16  1  0
 15 17  1  0
 16 19  1  0
 17 18  2  0
 18 20  1  0
 19 21  1  0
 20 22  1  0
 21 23  1  0
 22 24  1  0
 23 25  1  0
 24 26  1  0
 25 27  1  0
 26 28  1  0
 27 29  1  0
 28 30  1  0
 29 31  1  0
 30 32  1  0
 31 36  1  0
 32 37  1  0
 33 35  1  0
 33 42  1  0
 34 35  1  0
 34 44  1  0
 35 45  1  0
 36 38  2  0
 36 42  1  0
 37 39  2  0
 37 45  1  0
 40 46  2  0
 46 41  1  6
 43 46  1  0
 44 46  1  0
  1 47  1  0
  1 48  1  0
  1 49  1  0
  2 50  1  0
  2 51  1  0
  2 52  1  0
  3 53  1  0
  3 54  1  0
  4 55  1  0
  4 56  1  0
  5 57  1  0
  5 58  1  0
  6 59  1  0
  6 60  1  0
  7 61  1  0
  7 62  1  0
  8 63  1  0
  8 64  1  0
  9 65  1  0
  9 66  1  0
 10 67  1  0
 10 68  1  0
 11 69  1  0
 11 70  1  0
 12 71  1  0
 12 72  1  0
 13 73  1  0
 13 74  1  0
 14 75  1  0
 14 76  1  0
 15 77  1  0
 15 78  1  0
 16 79  1  0
 16 80  1  0
 17 81  1  0
 18 82  1  0
 19 83  1  0
 19 84  1  0
 20 85  1  0
 20 86  1  0
 21 87  1  0
 21 88  1  0
 22 89  1  0
 22 90  1  0
 23 91  1  0
 23 92  1  0
 24 93  1  0
 24 94  1  0
 25 95  1  0
 25 96  1  0
 26 97  1  0
 26 98  1  0
 27 99  1  0
 27100  1  0
 28101  1  0
 28102  1  0
 29103  1  0
 29104  1  0
 30105  1  0
 30106  1  0
 31107  1  0
 31108  1  0
 32109  1  0
 32110  1  0
 33111  1  0
 33112  1  0
 34113  1  0
 34114  1  0
 35115  1  1
 41116  1  0
 43117  1  0
118120  1  0
119121  1  0
120122  1  0
121123  1  0
122124  1  0
123125  1  0
124126  1  0
125127  1  0
126128  1  0
127129  1  0
128130  1  0
129131  1  0
130132  1  0
131133  1  0
132134  1  0
133136  1  0
134135  2  0
135137  1  0
136138  1  0
137139  1  0
138140  1  0
139141  1  0
140142  1  0
141143  1  0
142144  1  0
143145  1  0
144146  1  0
145147  1  0
146148  1  0
147149  1  0
148153  1  0
149154  1  0
150152  1  0
150159  1  0
151152  1  0
151161  1  0
152162  1  0
153155  2  0
153159  1  0
154156  2  0
154162  1  0
157163  2  0
163158  1  6
160163  1  0
161163  1  0
118164  1  0
118165  1  0
118166  1  0
119167  1  0
119168  1  0
119169  1  0
120170  1  0
120171  1  0
121172  1  0
121173  1  0
122174  1  0
122175  1  0
123176  1  0
123177  1  0
124178  1  0
124179  1  0
125180  1  0
125181  1  0
126182  1  0
126183  1  0
127184  1  0
127185  1  0
128186  1  0
128187  1  0
129188  1  0
129189  1  0
130190  1  0
130191  1  0
131192  1  0
131193  1  0
132194  1  0
132195  1  0
133196  1  0
133197  1  0
134198  1  0
135199  1  0
136200  1  0
136201  1  0
137202  1  0
137203  1  0
138204  1  0
138205  1  0
139206  1  0
139207  1  0
140208  1  0
140209  1  0
141210  1  0
141211  1  0
142212  1  0
142213  1  0
143214  1  0
143215  1  0
144216  1  0
144217  1  0
145218  1  0
145219  1  0
146220  1  0
146221  1  0
147222  1  0
147223  1  0
148224  1  0
148225  1  0
149226  1  0
149227  1  0
150228  1  0
150229  1  0
151230  1  0
151231  1  0
152232  1  1
158233  1  0
160234  1  0
235237  1  0
236238  1  0
237239  1  0
238240  1  0
239241  1  0
240242  1  0
241243  1  0
242244  1  0
243245  1  0
244246  1  0
245247  1  0
246248  1  0
247249  1  0
248250  1  0
249251  1  0
250253  1  0
251252  2  0
252254  1  0
253255  1  0
254256  1  0
255257  1  0
256258  1  0
257259  1  0
258260  1  0
259261  1  0
260262  1  0
261263  1  0
262264  1  0
263265  1  0
264266  1  0
265270  1  0
266271  1  0
267269  1  0
267276  1  0
268269  1  0
268278  1  0
269279  1  0
270272  2  0
270276  1  0
271273  2  0
271279  1  0
274280  2  0
280275  1  1
277280  1  0
278280  1  0
235281  1  0
235282  1  0
235283  1  0
236284  1  0
236285  1  0
236286  1  0
237287  1  0
237288  1  0
238289  1  0
238290  1  0
239291  1  0
239292  1  0
240293  1  0
240294  1  0
241295  1  0
241296  1  0
242297  1  0
242298  1  0
243299  1  0
243300  1  0
244301  1  0
244302  1  0
245303  1  0
245304  1  0
246305  1  0
246306  1  0
247307  1  0
247308  1  0
248309  1  0
248310  1  0
249311  1  0
249312  1  0
250313  1  0
250314  1  0
251315  1  0
252316  1  0
253317  1  0
253318  1  0
254319  1  0
254320  1  0
255321  1  0
255322  1  0
256323  1  0
256324  1  0
257325  1  0
257326  1  0
258327  1  0
258328  1  0
259329  1  0
259330  1  0
260331  1  0
260332  1  0
261333  1  0
261334  1  0
262335  1  0
262336  1  0
263337  1  0
263338  1  0
264339  1  0
264340  1  0
265341  1  0
265342  1  0
266343  1  0
266344  1  0
267345  1  0
267346  1  0
268347  1  0
268348  1  0
269349  1  6
275350  1  0
277351  1  0
352354  1  0
353355  1  0
354356  1  0
355357  1  0
356358  1  0
357359  1  0
358360  1  0
359361  1  0
360362  1  0
361363  1  0
362364  1  0
363365  1  0
364366  1  0
365367  1  0
366368  1  0
367370  1  0
368369  2  0
369371  1  0
370372  1  0
371373  1  0
372374  1  0
373375  1  0
374376  1  0
375377  1  0
376378  1  0
377379  1  0
378380  1  0
379381  1  0
380382  1  0
381383  1  0
382387  1  0
383388  1  0
384386  1  0
384393  1  0
385386  1  0
385395  1  0
386396  1  0
387389  2  0
387393  1  0
388390  2  0
388396  1  0
391397  2  0
397392  1  1
394397  1  0
395397  1  0
352398  1  0
352399  1  0
352400  1  0
353401  1  0
353402  1  0
353403  1  0
354404  1  0
354405  1  0
355406  1  0
355407  1  0
356408  1  0
356409  1  0
357410  1  0
357411  1  0
358412  1  0
358413  1  0
359414  1  0
359415  1  0
360416  1  0
360417  1  0
361418  1  0
361419  1  0
362420  1  0
362421  1  0
363422  1  0
363423  1  0
364424  1  0
364425  1  0
365426  1  0
365427  1  0
366428  1  0
366429  1  0
367430  1  0
367431  1  0
368432  1  0
369433  1  0
370434  1  0
370435  1  0
371436  1  0
371437  1  0
372438  1  0
372439  1  0
373440  1  0
373441  1  0
374442  1  0
374443  1  0
375444  1  0
375445  1  0
376446  1  0
376447  1  0
377448  1  0
377449  1  0
378450  1  0
378451  1  0
379452  1  0
379453  1  0
380454  1  0
380455  1  0
381456  1  0
381457  1  0
382458  1  0
382459  1  0
383460  1  0
383461  1  0
384462  1  0
384463  1  0
385464  1  0
385465  1  0
386466  1  6
392467  1  0
394468  1  0
M  END
>  <SOURCE>  (1) 
Identity: PubChem CID 5497103; coordinates: RDKit ETKDGv3/MMFF, extended-tail constrained educational conformer

>  <NOTE>  (1) 
One representative phospholipid. This conformation is illustrative, not an experimentally measured membrane structure.

$$$$
