notebook-fatty-saturated
     RDKit          3D

 20 19  0  0  0  0  0  0  0  0999 V2000
   -2.8533   -0.6520   -1.0891 C   0  0  0  0  0  0  0  0  0  0  0  0
   -2.5770   -0.4598    0.3938 C   0  0  0  0  0  0  0  0  0  0  0  0
   -1.7686    0.8015    0.7069 C   0  0  0  0  0  0  0  0  0  0  0  0
   -0.3829    0.8787    0.0598 C   0  0  0  0  0  0  0  0  0  0  0  0
    0.5449   -0.2625    0.4735 C   0  0  0  0  0  0  0  0  0  0  0  0
    1.9340   -0.0742   -0.0751 C   0  0  0  0  0  0  0  0  0  0  0  0
    2.3263    0.8026   -0.8249 O   0  0  0  0  0  0  0  0  0  0  0  0
    2.7766   -1.0343    0.3553 O   0  0  0  0  0  0  0  0  0  0  0  0
   -1.9321   -0.8449   -1.6468 H   0  0  0  0  0  0  0  0  0  0  0  0
   -3.5168   -1.5098   -1.2393 H   0  0  0  0  0  0  0  0  0  0  0  0
   -3.3393    0.2308   -1.5162 H   0  0  0  0  0  0  0  0  0  0  0  0
   -2.0702   -1.3465    0.7899 H   0  0  0  0  0  0  0  0  0  0  0  0
   -3.5367   -0.3924    0.9206 H   0  0  0  0  0  0  0  0  0  0  0  0
   -2.3463    1.6798    0.3927 H   0  0  0  0  0  0  0  0  0  0  0  0
   -1.6570    0.8807    1.7955 H   0  0  0  0  0  0  0  0  0  0  0  0
   -0.4761    0.9069   -1.0324 H   0  0  0  0  0  0  0  0  0  0  0  0
    0.0730    1.8357    0.3452 H   0  0  0  0  0  0  0  0  0  0  0  0
    0.6124   -0.3058    1.5661 H   0  0  0  0  0  0  0  0  0  0  0  0
    0.1658   -1.2183    0.0981 H   0  0  0  0  0  0  0  0  0  0  0  0
    3.6307   -0.8060   -0.0682 H   0  0  0  0  0  0  0  0  0  0  0  0
  1  2  1  0
  2  3  1  0
  3  4  1  0
  4  5  1  0
  5  6  1  0
  6  7  2  0
  6  8  1  0
  1  9  1  0
  1 10  1  0
  1 11  1  0
  2 12  1  0
  2 13  1  0
  3 14  1  0
  3 15  1  0
  4 16  1  0
  4 17  1  0
  5 18  1  0
  5 19  1  0
  8 20  1  0
M  END
$$$$
