products-sucrose
     RDKit          3D

 48 48  0  0  1  0  0  0  0  0999 V2000
   -1.3513   -0.8735    0.7756 O   0  0  0  0  0  0  0  0  0  0  0  0
   -0.6184    1.1974   -0.0529 O   0  0  0  0  0  0  0  0  0  0  0  0
    0.9058   -0.5757   -0.1927 O   0  0  0  0  0  0  0  0  0  0  0  0
   -2.9787    2.3431    0.7135 O   0  0  0  0  0  0  0  0  0  0  0  0
   -4.7187   -0.0868   -0.0849 O   0  0  0  0  0  0  0  0  0  0  0  0
    0.7907    1.2645   -2.4293 O   0  0  0  0  0  0  0  0  0  0  0  0
    3.6394    1.7703   -0.2322 O   0  0  0  0  0  0  0  0  0  0  0  0
    2.7211   -0.8780   -2.5385 O   0  0  0  0  0  0  0  0  0  0  0  0
   -1.3560    0.1631    3.3600 O   0  0  0  0  0  0  0  0  0  0  0  0
   -1.5783   -3.1765   -0.8146 O   0  0  0  0  0  0  0  0  0  0  0  0
    4.1257   -1.6010    1.2047 O   0  0  0  0  0  0  0  0  0  0  0  0
   -1.3288    0.5481    1.0027 C   0  0  1  0  0  0  0  0  0  0  0  0
   -2.7958    0.9632    0.9603 C   0  0  2  0  0  0  0  0  0  0  0  0
   -3.3172    0.0951   -0.1651 C   0  0  1  0  0  0  0  0  0  0  0  0
   -2.5818   -1.2128    0.1042 C   0  0  1  0  0  0  0  0  0  0  0  0
    0.7613    0.8359   -0.0497 C   0  0  1  0  0  0  0  0  0  0  0  0
    1.4553    1.5657   -1.2015 C   0  0  1  0  0  0  0  0  0  0  0  0
    2.9282    1.1634   -1.3064 C   0  0  2  0  0  0  0  0  0  0  0  0
    3.1093   -0.3594   -1.2624 C   0  0  1  0  0  0  0  0  0  0  0  0
    2.2588   -1.0485   -0.1813 C   0  0  1  0  0  0  0  0  0  0  0  0
   -0.6635    0.8552    2.3351 C   0  0  0  0  0  0  0  0  0  0  0  0
   -2.2681   -1.9878   -1.1640 C   0  0  0  0  0  0  0  0  0  0  0  0
    2.8611   -0.9648    1.2198 C   0  0  0  0  0  0  0  0  0  0  0  0
   -3.3252    0.7137    1.8881 H   0  0  0  0  0  0  0  0  0  0  0  0
   -3.0788    0.5302   -1.1428 H   0  0  0  0  0  0  0  0  0  0  0  0
   -3.1452   -1.8563    0.7915 H   0  0  0  0  0  0  0  0  0  0  0  0
    1.2461    1.1962    0.8598 H   0  0  0  0  0  0  0  0  0  0  0  0
    1.3663    2.6483   -1.0505 H   0  0  0  0  0  0  0  0  0  0  0  0
    3.3385    1.5547   -2.2455 H   0  0  0  0  0  0  0  0  0  0  0  0
    4.1690   -0.6060   -1.1343 H   0  0  0  0  0  0  0  0  0  0  0  0
    2.1904   -2.1126   -0.4421 H   0  0  0  0  0  0  0  0  0  0  0  0
   -0.6594    1.9291    2.5490 H   0  0  0  0  0  0  0  0  0  0  0  0
    0.3574    0.4784    2.4102 H   0  0  0  0  0  0  0  0  0  0  0  0
   -1.6213   -1.4140   -1.8361 H   0  0  0  0  0  0  0  0  0  0  0  0
   -3.1814   -2.2613   -1.7002 H   0  0  0  0  0  0  0  0  0  0  0  0
    2.2160   -1.4639    1.9511 H   0  0  0  0  0  0  0  0  0  0  0  0
    2.9973    0.0618    1.5665 H   0  0  0  0  0  0  0  0  0  0  0  0
   -3.9299    2.4914    0.5765 H   0  0  0  0  0  0  0  0  0  0  0  0
   -4.9712   -0.7211   -0.7772 H   0  0  0  0  0  0  0  0  0  0  0  0
   -0.1478    1.4920   -2.3151 H   0  0  0  0  0  0  0  0  0  0  0  0
    4.5757    1.5249   -0.3242 H   0  0  0  0  0  0  0  0  0  0  0  0
    2.9127   -1.8313   -2.5390 H   0  0  0  0  0  0  0  0  0  0  0  0
   -0.9286    0.3928    4.2026 H   0  0  0  0  0  0  0  0  0  0  0  0
   -0.7694   -2.9172   -0.3410 H   0  0  0  0  0  0  0  0  0  0  0  0
    3.9861   -2.5326    0.9636 H   0  0  0  0  0  0  0  0  0  0  0  0
    9.5757   -0.0601    0.0425 O   0  0  0  0  0  0  0  0  0  0  0  0
   10.5329   -0.0601    0.0425 H   0  0  0  0  0  0  0  0  0  0  0  0
    9.3357    0.8666    0.0425 H   0  0  0  0  0  0  0  0  0  0  0  0
  1 12  1  0
  1 15  1  0
 12  2  1  6
  2 16  1  0
  3 16  1  0
  3 20  1  0
  4 13  1  0
  4 38  1  0
  5 14  1  0
  5 39  1  0
  6 17  1  0
  6 40  1  0
  7 18  1  0
  7 41  1  0
  8 19  1  0
  8 42  1  0
  9 21  1  0
  9 43  1  0
 10 22  1  0
 10 44  1  0
 11 23  1  0
 11 45  1  0
 12 13  1  0
 12 21  1  0
 13 14  1  0
 13 24  1  1
 14 15  1  0
 14 25  1  6
 15 22  1  0
 15 26  1  1
 16 17  1  0
 16 27  1  1
 17 18  1  0
 17 28  1  1
 18 19  1  0
 18 29  1  6
 19 20  1  0
 19 30  1  1
 20 23  1  0
 20 31  1  6
 21 32  1  0
 21 33  1  0
 22 34  1  0
 22 35  1  0
 23 36  1  0
 23 37  1  0
 46 47  1  0
 46 48  1  0
M  END
>  <PUBCHEM_COMPOUND_CID>  (1) 
5988

>  <PUBCHEM_CONFORMER_RMSD>  (1) 
0.8

>  <PUBCHEM_CONFORMER_DIVERSEORDER>  (1) 
1
5
7
3
6
2
4

>  <PUBCHEM_MMFF94_PARTIAL_CHARGES>  (1) 
31
1 -0.56
10 -0.68
11 -0.68
12 0.56
13 0.28
14 0.28
15 0.28
16 0.56
17 0.28
18 0.28
19 0.28
2 -0.56
20 0.28
21 0.28
22 0.28
23 0.28
3 -0.56
38 0.4
39 0.4
4 -0.68
40 0.4
41 0.4
42 0.4
43 0.4
44 0.4
45 0.4
5 -0.68
6 -0.68
7 -0.68
8 -0.68
9 -0.68

>  <PUBCHEM_EFFECTIVE_ROTOR_COUNT>  (1) 
7.2

>  <PUBCHEM_PHARMACOPHORE_FEATURES>  (1) 
21
1 1 acceptor
1 10 acceptor
1 10 donor
1 11 acceptor
1 11 donor
1 2 acceptor
1 3 acceptor
1 4 acceptor
1 4 donor
1 5 acceptor
1 5 donor
1 6 acceptor
1 6 donor
1 7 acceptor
1 7 donor
1 8 acceptor
1 8 donor
1 9 acceptor
1 9 donor
5 1 12 13 14 15 rings
6 3 16 17 18 19 20 rings

>  <PUBCHEM_HEAVY_ATOM_COUNT>  (1) 
23

>  <PUBCHEM_ATOM_DEF_STEREO_COUNT>  (1) 
9

>  <PUBCHEM_ATOM_UDEF_STEREO_COUNT>  (1) 
0

>  <PUBCHEM_BOND_DEF_STEREO_COUNT>  (1) 
0

>  <PUBCHEM_BOND_UDEF_STEREO_COUNT>  (1) 
0

>  <PUBCHEM_ISOTOPIC_ATOM_COUNT>  (1) 
0

>  <PUBCHEM_COMPONENT_COUNT>  (1) 
1

>  <PUBCHEM_CACTVS_TAUTO_COUNT>  (1) 
1

>  <PUBCHEM_CONFORMER_ID>  (1) 
0000176400000001

>  <PUBCHEM_MMFF94_ENERGY>  (1) 
77.6043

>  <PUBCHEM_FEATURE_SELFOVERLAP>  (1) 
106.726

>  <PUBCHEM_SHAPE_FINGERPRINT>  (1) 
10498660 4 18408044026397964117
10922523 26 18270957947412558034
12173636 292 18187639206870113283
13224815 77 17458622358473311570
13538477 17 18113339708453955071
14787075 74 16953691508025939297
16752209 62 18263631888762839941
16945 1 18335425621479279865
18186145 218 17274547520514330359
18981168 100 18268423530044661341
21069387 34 14261360128088530127
21486144 27 17060339638598854669
21524375 3 18051681158311593581
23557571 272 18058448883949780938
23598288 3 18263344932996233811
3286 77 13046208503433749912
3797600 57 17024331783845889456
45790113 50 17748831773987668583
474 4 16660656180029715844
5161694 15 17275108284303089140
5845 1 17700395143258406769
7097593 13 17606669223978608523
81228 2 17772737510739799175

>  <PUBCHEM_SHAPE_MULTIPOLES>  (1) 
408.77
6.87
2.31
2.04
0.35
1.13
-0.51
0.41
0.45
-1.56
-0.45
1.48
-0.52
-0.16

>  <PUBCHEM_SHAPE_SELFOVERLAP>  (1) 
844.863

>  <PUBCHEM_SHAPE_VOLUME>  (1) 
231.2

>  <PUBCHEM_COORDINATE_TYPE>  (1) 
2
5
10

>  <NOTE>  (1) 
Complete condensation product plus separate water molecules for static atom-balanced comparison, not a reaction trajectory.

$$$$
