reactants-triglyceride
     RDKit          3D

164160  0  0  0  0  0  0  0  0999 V2000
    0.4199  -15.2672    0.2541 O   0  0  0  0  0  0  0  0  0  0  0  0
    2.7953  -13.9223   -0.2327 O   0  0  0  0  0  0  0  0  0  0  0  0
   -2.0167  -13.9276   -0.2342 O   0  0  0  0  0  0  0  0  0  0  0  0
    0.3965  -13.9303   -0.2513 C   0  0  0  0  0  0  0  0  0  0  0  0
    1.6508  -13.2199    0.2404 C   0  0  0  0  0  0  0  0  0  0  0  0
   -0.8673  -13.2401    0.2489 C   0  0  0  0  0  0  0  0  0  0  0  0
    0.3931  -14.0145   -1.3431 H   0  0  0  0  0  0  0  0  0  0  0  0
    1.7041  -13.1992    1.3340 H   0  0  0  0  0  0  0  0  0  0  0  0
    1.6983  -12.1933   -0.1345 H   0  0  0  0  0  0  0  0  0  0  0  0
   -0.9105  -12.2043   -0.1024 H   0  0  0  0  0  0  0  0  0  0  0  0
   -0.9136  -13.2509    1.3431 H   0  0  0  0  0  0  0  0  0  0  0  0
    0.4178  -15.2212    1.2255 H   0  0  0  0  0  0  0  0  0  0  0  0
    2.7373  -14.8334    0.1026 H   0  0  0  0  0  0  0  0  0  0  0  0
   -2.7953  -13.4545    0.1058 H   0  0  0  0  0  0  0  0  0  0  0  0
  -10.1713   -7.5436    0.1228 O   0  0  0  0  0  0  0  0  0  0  0  0
   -9.1254   -5.5326   -0.0155 O   0  0  0  0  0  0  0  0  0  0  0  0
    1.1688   -6.5467   -0.0447 C   0  0  0  0  0  0  0  0  0  0  0  0
   -0.0859   -7.4219   -0.0524 C   0  0  0  0  0  0  0  0  0  0  0  0
    2.4372   -7.4037   -0.0590 C   0  0  0  0  0  0  0  0  0  0  0  0
   -1.3931   -6.6236   -0.0249 C   0  0  0  0  0  0  0  0  0  0  0  0
    3.6940   -6.5330   -0.0148 C   0  0  0  0  0  0  0  0  0  0  0  0
   -2.6818   -7.4499    0.0536 C   0  0  0  0  0  0  0  0  0  0  0  0
    4.9966   -7.3371   -0.0654 C   0  0  0  0  0  0  0  0  0  0  0  0
   -3.9558   -6.6013    0.0285 C   0  0  0  0  0  0  0  0  0  0  0  0
    6.2923   -6.5270    0.0608 C   0  0  0  0  0  0  0  0  0  0  0  0
   -5.2087   -7.4780    0.0294 C   0  0  0  0  0  0  0  0  0  0  0  0
    7.5558   -7.3914    0.0658 C   0  0  0  0  0  0  0  0  0  0  0  0
   -6.5192   -6.6818    0.0440 C   0  0  0  0  0  0  0  0  0  0  0  0
    8.8496   -6.5732    0.1024 C   0  0  0  0  0  0  0  0  0  0  0  0
   -7.7837   -7.5410    0.0566 C   0  0  0  0  0  0  0  0  0  0  0  0
   10.1103   -7.4235    0.0771 C   0  0  0  0  0  0  0  0  0  0  0  0
   -9.0716   -6.7547    0.0385 C   0  0  0  0  0  0  0  0  0  0  0  0
    1.1594   -5.8834   -0.9179 H   0  0  0  0  0  0  0  0  0  0  0  0
    1.1638   -5.9091    0.8474 H   0  0  0  0  0  0  0  0  0  0  0  0
   -0.0797   -8.0623   -0.9431 H   0  0  0  0  0  0  0  0  0  0  0  0
   -0.0633   -8.0907    0.8170 H   0  0  0  0  0  0  0  0  0  0  0  0
    2.4349   -8.0844    0.8009 H   0  0  0  0  0  0  0  0  0  0  0  0
    2.4523   -8.0240   -0.9632 H   0  0  0  0  0  0  0  0  0  0  0  0
   -1.4330   -5.9920   -0.9215 H   0  0  0  0  0  0  0  0  0  0  0  0
   -1.3689   -5.9392    0.8329 H   0  0  0  0  0  0  0  0  0  0  0  0
    3.6812   -5.8279   -0.8550 H   0  0  0  0  0  0  0  0  0  0  0  0
    3.6829   -5.9314    0.9025 H   0  0  0  0  0  0  0  0  0  0  0  0
   -2.6642   -8.0540    0.9689 H   0  0  0  0  0  0  0  0  0  0  0  0
   -2.6991   -8.1527   -0.7887 H   0  0  0  0  0  0  0  0  0  0  0  0
    4.9759   -8.0818    0.7408 H   0  0  0  0  0  0  0  0  0  0  0  0
    5.0247   -7.9024   -1.0056 H   0  0  0  0  0  0  0  0  0  0  0  0
   -3.9574   -5.9650   -0.8645 H   0  0  0  0  0  0  0  0  0  0  0  0
   -3.9687   -5.9357    0.8998 H   0  0  0  0  0  0  0  0  0  0  0  0
    6.3435   -5.8126   -0.7699 H   0  0  0  0  0  0  0  0  0  0  0  0
    6.2585   -5.9361    0.9843 H   0  0  0  0  0  0  0  0  0  0  0  0
   -5.1871   -8.1377    0.9058 H   0  0  0  0  0  0  0  0  0  0  0  0
   -5.1971   -8.1275   -0.8547 H   0  0  0  0  0  0  0  0  0  0  0  0
    7.5289   -8.0662    0.9301 H   0  0  0  0  0  0  0  0  0  0  0  0
    7.5603   -8.0247   -0.8299 H   0  0  0  0  0  0  0  0  0  0  0  0
   -6.5430   -6.0220   -0.8328 H   0  0  0  0  0  0  0  0  0  0  0  0
   -6.5275   -6.0219    0.9211 H   0  0  0  0  0  0  0  0  0  0  0  0
    8.8591   -5.9516    1.0056 H   0  0  0  0  0  0  0  0  0  0  0  0
    8.8700   -5.8887   -0.7542 H   0  0  0  0  0  0  0  0  0  0  0  0
   -7.7843   -8.1977   -0.8207 H   0  0  0  0  0  0  0  0  0  0  0  0
   -7.7844   -8.1642    0.9582 H   0  0  0  0  0  0  0  0  0  0  0  0
   10.1439   -8.0963    0.9398 H   0  0  0  0  0  0  0  0  0  0  0  0
   10.9997   -6.7865    0.1060 H   0  0  0  0  0  0  0  0  0  0  0  0
   10.1537   -8.0296   -0.8331 H   0  0  0  0  0  0  0  0  0  0  0  0
  -10.9997   -7.0182    0.1253 H   0  0  0  0  0  0  0  0  0  0  0  0
  -10.1713   -0.6785    0.1228 O   0  0  0  0  0  0  0  0  0  0  0  0
   -9.1254    1.3326   -0.0155 O   0  0  0  0  0  0  0  0  0  0  0  0
    1.1688    0.3185   -0.0447 C   0  0  0  0  0  0  0  0  0  0  0  0
   -0.0859   -0.5567   -0.0524 C   0  0  0  0  0  0  0  0  0  0  0  0
    2.4372   -0.5386   -0.0590 C   0  0  0  0  0  0  0  0  0  0  0  0
   -1.3931    0.2416   -0.0249 C   0  0  0  0  0  0  0  0  0  0  0  0
    3.6940    0.3322   -0.0148 C   0  0  0  0  0  0  0  0  0  0  0  0
   -2.6818   -0.5848    0.0536 C   0  0  0  0  0  0  0  0  0  0  0  0
    4.9966   -0.4719   -0.0654 C   0  0  0  0  0  0  0  0  0  0  0  0
   -3.9558    0.2639    0.0285 C   0  0  0  0  0  0  0  0  0  0  0  0
    6.2923    0.3382    0.0608 C   0  0  0  0  0  0  0  0  0  0  0  0
   -5.2087   -0.6129    0.0294 C   0  0  0  0  0  0  0  0  0  0  0  0
    7.5558   -0.5262    0.0658 C   0  0  0  0  0  0  0  0  0  0  0  0
   -6.5192    0.1833    0.0440 C   0  0  0  0  0  0  0  0  0  0  0  0
    8.8496    0.2919    0.1024 C   0  0  0  0  0  0  0  0  0  0  0  0
   -7.7837   -0.6759    0.0566 C   0  0  0  0  0  0  0  0  0  0  0  0
   10.1103   -0.5583    0.0771 C   0  0  0  0  0  0  0  0  0  0  0  0
   -9.0716    0.1104    0.0385 C   0  0  0  0  0  0  0  0  0  0  0  0
    1.1594    0.9817   -0.9179 H   0  0  0  0  0  0  0  0  0  0  0  0
    1.1638    0.9561    0.8474 H   0  0  0  0  0  0  0  0  0  0  0  0
   -0.0797   -1.1971   -0.9431 H   0  0  0  0  0  0  0  0  0  0  0  0
   -0.0633   -1.2256    0.8170 H   0  0  0  0  0  0  0  0  0  0  0  0
    2.4349   -1.2192    0.8009 H   0  0  0  0  0  0  0  0  0  0  0  0
    2.4523   -1.1588   -0.9632 H   0  0  0  0  0  0  0  0  0  0  0  0
   -1.4330    0.8732   -0.9215 H   0  0  0  0  0  0  0  0  0  0  0  0
   -1.3689    0.9259    0.8329 H   0  0  0  0  0  0  0  0  0  0  0  0
    3.6812    1.0373   -0.8550 H   0  0  0  0  0  0  0  0  0  0  0  0
    3.6829    0.9337    0.9025 H   0  0  0  0  0  0  0  0  0  0  0  0
   -2.6642   -1.1889    0.9689 H   0  0  0  0  0  0  0  0  0  0  0  0
   -2.6991   -1.2876   -0.7887 H   0  0  0  0  0  0  0  0  0  0  0  0
    4.9759   -1.2167    0.7408 H   0  0  0  0  0  0  0  0  0  0  0  0
    5.0247   -1.0372   -1.0056 H   0  0  0  0  0  0  0  0  0  0  0  0
   -3.9574    0.9002   -0.8645 H   0  0  0  0  0  0  0  0  0  0  0  0
   -3.9687    0.9294    0.8998 H   0  0  0  0  0  0  0  0  0  0  0  0
    6.3435    1.0526   -0.7699 H   0  0  0  0  0  0  0  0  0  0  0  0
    6.2585    0.9291    0.9843 H   0  0  0  0  0  0  0  0  0  0  0  0
   -5.1871   -1.2726    0.9058 H   0  0  0  0  0  0  0  0  0  0  0  0
   -5.1971   -1.2623   -0.8547 H   0  0  0  0  0  0  0  0  0  0  0  0
    7.5289   -1.2010    0.9301 H   0  0  0  0  0  0  0  0  0  0  0  0
    7.5603   -1.1595   -0.8299 H   0  0  0  0  0  0  0  0  0  0  0  0
   -6.5430    0.8432   -0.8328 H   0  0  0  0  0  0  0  0  0  0  0  0
   -6.5275    0.8432    0.9211 H   0  0  0  0  0  0  0  0  0  0  0  0
    8.8591    0.9135    1.0056 H   0  0  0  0  0  0  0  0  0  0  0  0
    8.8700    0.9765   -0.7542 H   0  0  0  0  0  0  0  0  0  0  0  0
   -7.7843   -1.3326   -0.8207 H   0  0  0  0  0  0  0  0  0  0  0  0
   -7.7844   -1.2991    0.9582 H   0  0  0  0  0  0  0  0  0  0  0  0
   10.1439   -1.2311    0.9398 H   0  0  0  0  0  0  0  0  0  0  0  0
   10.9997    0.0787    0.1060 H   0  0  0  0  0  0  0  0  0  0  0  0
   10.1537   -1.1645   -0.8331 H   0  0  0  0  0  0  0  0  0  0  0  0
  -10.9997   -0.1530    0.1253 H   0  0  0  0  0  0  0  0  0  0  0  0
  -10.1713    6.1867    0.1228 O   0  0  0  0  0  0  0  0  0  0  0  0
   -9.1254    8.1977   -0.0155 O   0  0  0  0  0  0  0  0  0  0  0  0
    1.1688    7.1836   -0.0447 C   0  0  0  0  0  0  0  0  0  0  0  0
   -0.0859    6.3084   -0.0524 C   0  0  0  0  0  0  0  0  0  0  0  0
    2.4372    6.3266   -0.0590 C   0  0  0  0  0  0  0  0  0  0  0  0
   -1.3931    7.1067   -0.0249 C   0  0  0  0  0  0  0  0  0  0  0  0
    3.6940    7.1973   -0.0148 C   0  0  0  0  0  0  0  0  0  0  0  0
   -2.6818    6.2804    0.0536 C   0  0  0  0  0  0  0  0  0  0  0  0
    4.9966    6.3932   -0.0654 C   0  0  0  0  0  0  0  0  0  0  0  0
   -3.9558    7.1290    0.0285 C   0  0  0  0  0  0  0  0  0  0  0  0
    6.2923    7.2033    0.0608 C   0  0  0  0  0  0  0  0  0  0  0  0
   -5.2087    6.2523    0.0294 C   0  0  0  0  0  0  0  0  0  0  0  0
    7.5558    6.3389    0.0658 C   0  0  0  0  0  0  0  0  0  0  0  0
   -6.5192    7.0485    0.0440 C   0  0  0  0  0  0  0  0  0  0  0  0
    8.8496    7.1571    0.1024 C   0  0  0  0  0  0  0  0  0  0  0  0
   -7.7837    6.1893    0.0566 C   0  0  0  0  0  0  0  0  0  0  0  0
   10.1103    6.3068    0.0771 C   0  0  0  0  0  0  0  0  0  0  0  0
   -9.0716    6.9756    0.0385 C   0  0  0  0  0  0  0  0  0  0  0  0
    1.1594    7.8469   -0.9179 H   0  0  0  0  0  0  0  0  0  0  0  0
    1.1638    7.8212    0.8474 H   0  0  0  0  0  0  0  0  0  0  0  0
   -0.0797    5.6680   -0.9431 H   0  0  0  0  0  0  0  0  0  0  0  0
   -0.0633    5.6396    0.8170 H   0  0  0  0  0  0  0  0  0  0  0  0
    2.4349    5.6459    0.8009 H   0  0  0  0  0  0  0  0  0  0  0  0
    2.4523    5.7063   -0.9632 H   0  0  0  0  0  0  0  0  0  0  0  0
   -1.4330    7.7383   -0.9215 H   0  0  0  0  0  0  0  0  0  0  0  0
   -1.3689    7.7911    0.8329 H   0  0  0  0  0  0  0  0  0  0  0  0
    3.6812    7.9024   -0.8550 H   0  0  0  0  0  0  0  0  0  0  0  0
    3.6829    7.7989    0.9025 H   0  0  0  0  0  0  0  0  0  0  0  0
   -2.6642    5.6763    0.9689 H   0  0  0  0  0  0  0  0  0  0  0  0
   -2.6991    5.5776   -0.7887 H   0  0  0  0  0  0  0  0  0  0  0  0
    4.9759    5.6485    0.7408 H   0  0  0  0  0  0  0  0  0  0  0  0
    5.0247    5.8279   -1.0056 H   0  0  0  0  0  0  0  0  0  0  0  0
   -3.9574    7.7653   -0.8645 H   0  0  0  0  0  0  0  0  0  0  0  0
   -3.9687    7.7945    0.8998 H   0  0  0  0  0  0  0  0  0  0  0  0
    6.3435    7.9177   -0.7699 H   0  0  0  0  0  0  0  0  0  0  0  0
    6.2585    7.7942    0.9843 H   0  0  0  0  0  0  0  0  0  0  0  0
   -5.1871    5.5926    0.9058 H   0  0  0  0  0  0  0  0  0  0  0  0
   -5.1971    5.6028   -0.8547 H   0  0  0  0  0  0  0  0  0  0  0  0
    7.5289    5.6641    0.9301 H   0  0  0  0  0  0  0  0  0  0  0  0
    7.5603    5.7056   -0.8299 H   0  0  0  0  0  0  0  0  0  0  0  0
   -6.5430    7.7083   -0.8328 H   0  0  0  0  0  0  0  0  0  0  0  0
   -6.5275    7.7084    0.9211 H   0  0  0  0  0  0  0  0  0  0  0  0
    8.8591    7.7787    1.0056 H   0  0  0  0  0  0  0  0  0  0  0  0
    8.8700    7.8416   -0.7542 H   0  0  0  0  0  0  0  0  0  0  0  0
   -7.7843    5.5326   -0.8207 H   0  0  0  0  0  0  0  0  0  0  0  0
   -7.7844    5.5661    0.9582 H   0  0  0  0  0  0  0  0  0  0  0  0
   10.1439    5.6340    0.9398 H   0  0  0  0  0  0  0  0  0  0  0  0
   10.9997    6.9438    0.1060 H   0  0  0  0  0  0  0  0  0  0  0  0
   10.1537    5.7007   -0.8331 H   0  0  0  0  0  0  0  0  0  0  0  0
  -10.9997    6.7121    0.1253 H   0  0  0  0  0  0  0  0  0  0  0  0
  1  4  1  0
  1 12  1  0
  2  5  1  0
  2 13  1  0
  3  6  1  0
  3 14  1  0
  4  5  1  0
  4  6  1  0
  4  7  1  0
  5  8  1  0
  5  9  1  0
  6 10  1  0
  6 11  1  0
 15 32  1  0
 15 64  1  0
 16 32  2  0
 17 18  1  0
 17 19  1  0
 17 33  1  0
 17 34  1  0
 18 20  1  0
 18 35  1  0
 18 36  1  0
 19 21  1  0
 19 37  1  0
 19 38  1  0
 20 22  1  0
 20 39  1  0
 20 40  1  0
 21 23  1  0
 21 41  1  0
 21 42  1  0
 22 24  1  0
 22 43  1  0
 22 44  1  0
 23 25  1  0
 23 45  1  0
 23 46  1  0
 24 26  1  0
 24 47  1  0
 24 48  1  0
 25 27  1  0
 25 49  1  0
 25 50  1  0
 26 28  1  0
 26 51  1  0
 26 52  1  0
 27 29  1  0
 27 53  1  0
 27 54  1  0
 28 30  1  0
 28 55  1  0
 28 56  1  0
 29 31  1  0
 29 57  1  0
 29 58  1  0
 30 32  1  0
 30 59  1  0
 30 60  1  0
 31 61  1  0
 31 62  1  0
 31 63  1  0
 65 82  1  0
 65114  1  0
 66 82  2  0
 67 68  1  0
 67 69  1  0
 67 83  1  0
 67 84  1  0
 68 70  1  0
 68 85  1  0
 68 86  1  0
 69 71  1  0
 69 87  1  0
 69 88  1  0
 70 72  1  0
 70 89  1  0
 70 90  1  0
 71 73  1  0
 71 91  1  0
 71 92  1  0
 72 74  1  0
 72 93  1  0
 72 94  1  0
 73 75  1  0
 73 95  1  0
 73 96  1  0
 74 76  1  0
 74 97  1  0
 74 98  1  0
 75 77  1  0
 75 99  1  0
 75100  1  0
 76 78  1  0
 76101  1  0
 76102  1  0
 77 79  1  0
 77103  1  0
 77104  1  0
 78 80  1  0
 78105  1  0
 78106  1  0
 79 81  1  0
 79107  1  0
 79108  1  0
 80 82  1  0
 80109  1  0
 80110  1  0
 81111  1  0
 81112  1  0
 81113  1  0
115132  1  0
115164  1  0
116132  2  0
117118  1  0
117119  1  0
117133  1  0
117134  1  0
118120  1  0
118135  1  0
118136  1  0
119121  1  0
119137  1  0
119138  1  0
120122  1  0
120139  1  0
120140  1  0
121123  1  0
121141  1  0
121142  1  0
122124  1  0
122143  1  0
122144  1  0
123125  1  0
123145  1  0
123146  1  0
124126  1  0
124147  1  0
124148  1  0
125127  1  0
125149  1  0
125150  1  0
126128  1  0
126151  1  0
126152  1  0
127129  1  0
127153  1  0
127154  1  0
128130  1  0
128155  1  0
128156  1  0
129131  1  0
129157  1  0
129158  1  0
130132  1  0
130159  1  0
130160  1  0
131161  1  0
131162  1  0
131163  1  0
M  END
>  <PUBCHEM_COMPOUND_CID>  (1) 
753

>  <PUBCHEM_CONFORMER_RMSD>  (1) 
0.4

>  <PUBCHEM_CONFORMER_DIVERSEORDER>  (1) 
1
9
3
8
5
2
7
6
4

>  <PUBCHEM_MMFF94_PARTIAL_CHARGES>  (1) 
9
1 -0.68
12 0.4
13 0.4
14 0.4
2 -0.68
3 -0.68
4 0.28
5 0.28
6 0.28

>  <PUBCHEM_EFFECTIVE_ROTOR_COUNT>  (1) 
2

>  <PUBCHEM_PHARMACOPHORE_FEATURES>  (1) 
6
1 1 acceptor
1 1 donor
1 2 acceptor
1 2 donor
1 3 acceptor
1 3 donor

>  <PUBCHEM_HEAVY_ATOM_COUNT>  (1) 
6

>  <PUBCHEM_ATOM_DEF_STEREO_COUNT>  (1) 
0

>  <PUBCHEM_ATOM_UDEF_STEREO_COUNT>  (1) 
0

>  <PUBCHEM_BOND_DEF_STEREO_COUNT>  (1) 
0

>  <PUBCHEM_BOND_UDEF_STEREO_COUNT>  (1) 
0

>  <PUBCHEM_ISOTOPIC_ATOM_COUNT>  (1) 
0

>  <PUBCHEM_COMPONENT_COUNT>  (1) 
1

>  <PUBCHEM_CACTVS_TAUTO_COUNT>  (1) 
1

>  <PUBCHEM_CONFORMER_ID>  (1) 
000002F100000001

>  <PUBCHEM_MMFF94_ENERGY>  (1) 
7.8462

>  <PUBCHEM_FEATURE_SELFOVERLAP>  (1) 
30.463

>  <PUBCHEM_SHAPE_FINGERPRINT>  (1) 
16714656 1 18261115187881759708
20096714 4 18411981373004497288
21040471 1 18409165532368289128
5460574 1 8358261440540177956
5943 1 11340980957501139630

>  <PUBCHEM_SHAPE_MULTIPOLES>  (1) 
105.87
2.79
1
0.62
0.04
0.22
0.01
-0.26
-0.27
-0.01
0.12
0
-0.02
0

>  <PUBCHEM_SHAPE_SELFOVERLAP>  (1) 
185.175

>  <PUBCHEM_SHAPE_VOLUME>  (1) 
70

>  <PUBCHEM_COORDINATE_TYPE>  (1) 
2
5
10

>  <NOTE>  (1) 
Separated complete reactants for static comparison. No reaction trajectory or simulation is implied.

$$$$
