reactants-peptide
     RDKit          3D

 20 18  0  0  0  0  0  0  0  0999 V2000
   -5.6493    0.5931   -0.0227 O   0  0  0  0  0  0  0  0  0  0  0  0
   -4.4843   -1.3575   -0.0128 O   0  0  0  0  0  0  0  0  0  0  0  0
   -2.1000   -0.1452   -0.0213 N   0  0  0  0  0  0  0  0  0  0  0  0
   -3.2665    0.7227   -0.0044 C   0  0  0  0  0  0  0  0  0  0  0  0
   -4.5029   -0.1331   -0.0003 C   0  0  0  0  0  0  0  0  0  0  0  0
   -3.2680    1.3575   -0.8946 H   0  0  0  0  0  0  0  0  0  0  0  0
   -3.2542    1.3448    0.8946 H   0  0  0  0  0  0  0  0  0  0  0  0
   -2.1263   -0.7484   -0.8423 H   0  0  0  0  0  0  0  0  0  0  0  0
   -2.1119   -0.7609    0.7909 H   0  0  0  0  0  0  0  0  0  0  0  0
   -6.4453    0.0199   -0.0383 H   0  0  0  0  0  0  0  0  0  0  0  0
    2.8960    0.5931   -0.0227 O   0  0  0  0  0  0  0  0  0  0  0  0
    4.0610   -1.3575   -0.0128 O   0  0  0  0  0  0  0  0  0  0  0  0
    6.4453   -0.1452   -0.0213 N   0  0  0  0  0  0  0  0  0  0  0  0
    5.2788    0.7227   -0.0044 C   0  0  0  0  0  0  0  0  0  0  0  0
    4.0424   -0.1331   -0.0003 C   0  0  0  0  0  0  0  0  0  0  0  0
    5.2773    1.3575   -0.8946 H   0  0  0  0  0  0  0  0  0  0  0  0
    5.2911    1.3448    0.8946 H   0  0  0  0  0  0  0  0  0  0  0  0
    6.4190   -0.7484   -0.8423 H   0  0  0  0  0  0  0  0  0  0  0  0
    6.4334   -0.7609    0.7909 H   0  0  0  0  0  0  0  0  0  0  0  0
    2.1000    0.0199   -0.0383 H   0  0  0  0  0  0  0  0  0  0  0  0
  1  5  1  0
  1 10  1  0
  2  5  2  0
  3  4  1  0
  3  8  1  0
  3  9  1  0
  4  5  1  0
  4  6  1  0
  4  7  1  0
 11 15  1  0
 11 20  1  0
 12 15  2  0
 13 14  1  0
 13 18  1  0
 13 19  1  0
 14 15  1  0
 14 16  1  0
 14 17  1  0
M  END
>  <PUBCHEM_COMPOUND_CID>  (1) 
750

>  <PUBCHEM_CONFORMER_RMSD>  (1) 
0.4

>  <PUBCHEM_CONFORMER_DIVERSEORDER>  (1) 
1
2

>  <PUBCHEM_MMFF94_PARTIAL_CHARGES>  (1) 
8
1 -0.65
10 0.5
2 -0.57
3 -0.99
4 0.33
5 0.66
8 0.36
9 0.36

>  <PUBCHEM_EFFECTIVE_ROTOR_COUNT>  (1) 
1

>  <PUBCHEM_PHARMACOPHORE_FEATURES>  (1) 
5
1 1 acceptor
1 2 acceptor
1 3 cation
1 3 donor
3 1 2 5 anion

>  <PUBCHEM_HEAVY_ATOM_COUNT>  (1) 
5

>  <PUBCHEM_ATOM_DEF_STEREO_COUNT>  (1) 
0

>  <PUBCHEM_ATOM_UDEF_STEREO_COUNT>  (1) 
0

>  <PUBCHEM_BOND_DEF_STEREO_COUNT>  (1) 
0

>  <PUBCHEM_BOND_UDEF_STEREO_COUNT>  (1) 
0

>  <PUBCHEM_ISOTOPIC_ATOM_COUNT>  (1) 
0

>  <PUBCHEM_COMPONENT_COUNT>  (1) 
1

>  <PUBCHEM_CACTVS_TAUTO_COUNT>  (1) 
1

>  <PUBCHEM_CONFORMER_ID>  (1) 
000002EE00000001

>  <PUBCHEM_MMFF94_ENERGY>  (1) 
2.2569

>  <PUBCHEM_FEATURE_SELFOVERLAP>  (1) 
25.429

>  <PUBCHEM_SHAPE_FINGERPRINT>  (1) 
139733 1 9221305500492508682
16714656 1 18334301928958962636
20096714 4 18408886234834677880
21015797 1 9580758932782445613
21040471 1 18410573955102640736
5460574 1 9295288339411764896
5943 1 16976965699258066967

>  <PUBCHEM_SHAPE_MULTIPOLES>  (1) 
86.18
1.9
1.06
0.56
0.45
0.2
0
-0.21
0.01
-0.19
0
0.01
-0.02
0

>  <PUBCHEM_SHAPE_SELFOVERLAP>  (1) 
152.844

>  <PUBCHEM_SHAPE_VOLUME>  (1) 
56.2

>  <PUBCHEM_COORDINATE_TYPE>  (1) 
2
5
10

>  <NOTE>  (1) 
Separated complete reactants for static comparison. No reaction trajectory or simulation is implied.

$$$$
