reactants-sucrose
     RDKit          3D

 48 48  0  0  1  0  0  0  0  0999 V2000
   -6.0049   -1.2983   -0.2903 O   0  0  0  0  0  0  0  0  0  0  0  0
   -6.2188    2.3016    0.3482 O   0  0  0  0  0  0  0  0  0  0  0  0
   -3.4757    1.9316   -0.4847 O   0  0  0  0  0  0  0  0  0  0  0  0
   -2.4708   -0.6897    0.4095 O   0  0  0  0  0  0  0  0  0  0  0  0
   -4.2152   -2.7950   -0.3210 O   0  0  0  0  0  0  0  0  0  0  0  0
   -8.7079   -1.1160    0.1753 O   0  0  0  0  0  0  0  0  0  0  0  0
   -5.7090    1.1069   -0.2380 C   0  0  1  0  0  0  0  0  0  0  0  0
   -4.2477    0.9258    0.1732 C   0  0  1  0  0  0  0  0  0  0  0  0
   -6.5542   -0.0831    0.2222 C   0  0  1  0  0  0  0  0  0  0  0  0
   -3.7282   -0.4559   -0.2244 C   0  0  2  0  0  0  0  0  0  0  0  0
   -4.6946   -1.5588    0.2075 C   0  0  1  0  0  0  0  0  0  0  0  0
   -7.9918    0.0185   -0.2776 C   0  0  0  0  0  0  0  0  0  0  0  0
   -5.7692    1.2245   -1.3269 H   0  0  0  0  0  0  0  0  0  0  0  0
   -4.1187    1.0913    1.2499 H   0  0  0  0  0  0  0  0  0  0  0  0
   -6.5798   -0.1479    1.3185 H   0  0  0  0  0  0  0  0  0  0  0  0
   -3.5492   -0.4883   -1.3059 H   0  0  0  0  0  0  0  0  0  0  0  0
   -4.7286   -1.6721    1.2972 H   0  0  0  0  0  0  0  0  0  0  0  0
   -8.0365    0.0268   -1.3718 H   0  0  0  0  0  0  0  0  0  0  0  0
   -8.4903    0.9147    0.1026 H   0  0  0  0  0  0  0  0  0  0  0  0
   -6.1761    2.2039    1.3147 H   0  0  0  0  0  0  0  0  0  0  0  0
   -3.8386    2.7950   -0.2226 H   0  0  0  0  0  0  0  0  0  0  0  0
   -2.6081   -0.6582    1.3718 H   0  0  0  0  0  0  0  0  0  0  0  0
   -3.8564   -2.6330   -1.2093 H   0  0  0  0  0  0  0  0  0  0  0  0
   -8.2555   -1.9057   -0.1676 H   0  0  0  0  0  0  0  0  0  0  0  0
    5.4957    1.0310    0.4152 O   0  0  0  0  0  0  0  0  0  0  0  0
    4.4985   -0.2114   -1.2596 O   0  0  0  0  0  0  0  0  0  0  0  0
    5.2387   -2.5564   -0.0235 O   0  0  0  0  0  0  0  0  0  0  0  0
    7.9964   -1.4912    0.9003 O   0  0  0  0  0  0  0  0  0  0  0  0
    2.5122    0.8405    0.2089 O   0  0  0  0  0  0  0  0  0  0  0  0
    7.1219    1.2713   -1.9172 O   0  0  0  0  0  0  0  0  0  0  0  0
    4.7226   -0.1446    0.1530 C   0  0  1  0  0  0  0  0  0  0  0  0
    5.5939   -1.3197    0.5921 C   0  0  2  0  0  0  0  0  0  0  0  0
    6.9679   -0.8508    0.1493 C   0  0  1  0  0  0  0  0  0  0  0  0
    6.8955    0.6503    0.4329 C   0  0  1  0  0  0  0  0  0  0  0  0
    3.3667   -0.1037    0.8744 C   0  0  0  0  0  0  0  0  0  0  0  0
    7.6408    1.4903   -0.6049 C   0  0  0  0  0  0  0  0  0  0  0  0
    3.6923    0.3359   -1.3791 H   0  0  0  0  0  0  0  0  0  0  0  0
    5.0268   -2.3353   -0.9549 H   0  0  0  0  0  0  0  0  0  0  0  0
    7.8789   -2.4497    0.7570 H   0  0  0  0  0  0  0  0  0  0  0  0
    1.7292    0.9585    0.7763 H   0  0  0  0  0  0  0  0  0  0  0  0
    6.1471    1.2776   -1.8334 H   0  0  0  0  0  0  0  0  0  0  0  0
    5.5751   -1.4600    1.6794 H   0  0  0  0  0  0  0  0  0  0  0  0
    7.1435   -1.0773   -0.9084 H   0  0  0  0  0  0  0  0  0  0  0  0
    7.2868    0.8835    1.4300 H   0  0  0  0  0  0  0  0  0  0  0  0
    2.8658   -1.0753    0.8253 H   0  0  0  0  0  0  0  0  0  0  0  0
    3.4824    0.2074    1.9172 H   0  0  0  0  0  0  0  0  0  0  0  0
    7.5226    2.5564   -0.3864 H   0  0  0  0  0  0  0  0  0  0  0  0
    8.7079    1.2498   -0.6141 H   0  0  0  0  0  0  0  0  0  0  0  0
  1  9  1  0
  1 11  1  0
  2  7  1  0
  2 20  1  0
  3  8  1  0
  3 21  1  0
  4 10  1  0
  4 22  1  0
  5 11  1  0
  5 23  1  0
  6 12  1  0
  6 24  1  0
  7  8  1  0
  7  9  1  0
  7 13  1  6
  8 10  1  0
  8 14  1  1
  9 12  1  0
  9 15  1  1
 10 11  1  0
 10 16  1  6
 11 17  1  1
 12 18  1  0
 12 19  1  0
 25 31  1  0
 25 34  1  0
 31 26  1  6
 27 32  1  0
 28 33  1  0
 29 35  1  0
 30 36  1  0
 31 32  1  0
 31 35  1  0
 32 33  1  0
 33 34  1  0
 34 36  1  0
 26 37  1  0
 27 38  1  0
 28 39  1  0
 29 40  1  0
 30 41  1  0
 32 42  1  1
 33 43  1  6
 34 44  1  1
 35 45  1  0
 35 46  1  0
 36 47  1  0
 36 48  1  0
M  END
>  <PUBCHEM_COMPOUND_CID>  (1) 
5793

>  <PUBCHEM_CONFORMER_RMSD>  (1) 
0.6

>  <PUBCHEM_CONFORMER_DIVERSEORDER>  (1) 
1
8
4
3
6
2
7
5

>  <PUBCHEM_MMFF94_PARTIAL_CHARGES>  (1) 
17
1 -0.56
10 0.28
11 0.56
12 0.28
2 -0.68
20 0.4
21 0.4
22 0.4
23 0.4
24 0.4
3 -0.68
4 -0.68
5 -0.68
6 -0.68
7 0.28
8 0.28
9 0.28

>  <PUBCHEM_EFFECTIVE_ROTOR_COUNT>  (1) 
2.2

>  <PUBCHEM_PHARMACOPHORE_FEATURES>  (1) 
12
1 1 acceptor
1 2 acceptor
1 2 donor
1 3 acceptor
1 3 donor
1 4 acceptor
1 4 donor
1 5 acceptor
1 5 donor
1 6 acceptor
1 6 donor
6 1 7 8 9 10 11 rings

>  <PUBCHEM_HEAVY_ATOM_COUNT>  (1) 
12

>  <PUBCHEM_ATOM_DEF_STEREO_COUNT>  (1) 
4

>  <PUBCHEM_ATOM_UDEF_STEREO_COUNT>  (1) 
1

>  <PUBCHEM_BOND_DEF_STEREO_COUNT>  (1) 
0

>  <PUBCHEM_BOND_UDEF_STEREO_COUNT>  (1) 
0

>  <PUBCHEM_ISOTOPIC_ATOM_COUNT>  (1) 
0

>  <PUBCHEM_COMPONENT_COUNT>  (1) 
1

>  <PUBCHEM_CACTVS_TAUTO_COUNT>  (1) 
1

>  <PUBCHEM_CONFORMER_ID>  (1) 
000016A100000001

>  <PUBCHEM_MMFF94_ENERGY>  (1) 
27.5671

>  <PUBCHEM_FEATURE_SELFOVERLAP>  (1) 
60.963

>  <PUBCHEM_SHAPE_FINGERPRINT>  (1) 
12423570 1 11440868573817502106
16945 1 18338792415782022985
18185500 45 18410572903041433514
193761 8 18122905588311858698
21040471 1 18339079405607498497
23235685 24 18410853278337711372
2334 1 17834396004942031816
23402655 69 18267854013893658469
23552423 10 18120089751981225934
23559900 14 18270413797459679636
241688 4 17978794506319527824
2748010 2 18194117417474202524
5084963 1 17769667725561077874
5255222 1 18335976562245387725
528862 383 18261390018417527851
528886 8 18411416206831951673
53812653 166 18412823616180991792
63268167 104 18410859824078808769
66348 1 18411141294496697448

>  <PUBCHEM_SHAPE_MULTIPOLES>  (1) 
211.74
3.59
2.42
0.65
1.75
0.15
0
-0.75
-0.13
-0.7
0.1
-0.03
0.03
-0.1

>  <PUBCHEM_SHAPE_SELFOVERLAP>  (1) 
421.584

>  <PUBCHEM_SHAPE_VOLUME>  (1) 
123.3

>  <PUBCHEM_COORDINATE_TYPE>  (1) 
2
5
10

>  <NOTE>  (1) 
Separated complete reactants for static comparison. No reaction trajectory or simulation is implied.

$$$$
