starch-fragment
     RDKit          3D

 87 90  0  0  1  0  0  0  0  0999 V2000
   -6.1064    1.4080    2.7857 O   0  0  0  0  0  0  0  0  0  0  0  0
   -9.2048    1.1120    0.8842 O   0  0  0  0  0  0  0  0  0  0  0  0
   -8.0741   -0.7937    3.7294 O   0  0  0  0  0  0  0  0  0  0  0  0
   -6.7818   -0.5918    0.3148 O   0  0  0  0  0  0  0  0  0  0  0  0
   -4.4815    0.2837    1.5696 O   0  0  0  0  0  0  0  0  0  0  0  0
   -6.2774    4.1261    2.1754 O   0  0  0  0  0  0  0  0  0  0  0  0
   -8.4176    1.0001    2.0768 C   0  0  1  0  0  0  0  0  0  0  0  0
   -8.0695   -0.4845    2.3324 C   0  0  1  0  0  0  0  0  0  0  0  0
   -7.1558    1.8783    1.9323 C   0  0  1  0  0  0  0  0  0  0  0  0
   -6.6977   -0.7975    1.7382 C   0  0  2  0  0  0  0  0  0  0  0  0
   -5.6237    0.1102    2.4093 C   0  0  2  0  0  0  0  0  0  0  0  0
   -7.4550    3.3295    2.3261 C   0  0  0  0  0  0  0  0  0  0  0  0
   -1.1582   -0.3178    1.5223 O   0  0  0  0  0  0  0  0  0  0  0  0
   -4.3975   -1.7459   -0.5163 O   0  0  0  0  0  0  0  0  0  0  0  0
   -1.8214   -2.4011   -1.3591 O   0  0  0  0  0  0  0  0  0  0  0  0
    0.0604   -1.0068   -0.3294 O   0  0  0  0  0  0  0  0  0  0  0  0
   -2.0046   -2.7931    3.0740 O   0  0  0  0  0  0  0  0  0  0  0  0
   -3.5779   -0.8384    1.5749 C   0  0  1  0  0  0  0  0  0  0  0  0
   -3.2477   -1.1406    0.1124 C   0  0  1  0  0  0  0  0  0  0  0  0
   -2.3073   -0.4691    2.3719 C   0  0  1  0  0  0  0  0  0  0  0  0
   -2.0554   -2.0845    0.0269 C   0  0  2  0  0  0  0  0  0  0  0  0
   -0.8241   -1.4505    0.7186 C   0  0  2  0  0  0  0  0  0  0  0  0
   -2.0193   -1.4425    3.5271 C   0  0  0  0  0  0  0  0  0  0  0  0
    3.3838    0.5200   -0.4989 O   0  0  0  0  0  0  0  0  0  0  0  0
    2.7602   -1.9159    1.7154 O   0  0  0  0  0  0  0  0  0  0  0  0
    2.8730   -2.2998   -1.9334 O   0  0  0  0  0  0  0  0  0  0  0  0
    4.8705   -0.5799   -1.9461 O   0  0  0  0  0  0  0  0  0  0  0  0
    1.7603    2.5463   -1.8469 O   0  0  0  0  0  0  0  0  0  0  0  0
    1.3622   -0.6430    0.1563 C   0  0  1  0  0  0  0  0  0  0  0  0
    2.2534   -1.8952    0.3709 C   0  0  1  0  0  0  0  0  0  0  0  0
    2.0055    0.3332   -0.8467 C   0  0  1  0  0  0  0  0  0  0  0  0
    3.4055   -1.9760   -0.6349 C   0  0  2  0  0  0  0  0  0  0  0  0
    4.1925   -0.6451   -0.6835 C   0  0  2  0  0  0  0  0  0  0  0  0
    1.3086    1.7015   -0.7889 C   0  0  0  0  0  0  0  0  0  0  0  0
    7.0275    2.0565   -3.3966 O   0  0  0  0  0  0  0  0  0  0  0  0
    7.3368   -0.8364   -0.3875 O   0  0  0  0  0  0  0  0  0  0  0  0
    9.6620   -0.0042   -1.7993 O   0  0  0  0  0  0  0  0  0  0  0  0
    8.5503    0.5359   -4.2963 O   0  0  0  0  0  0  0  0  0  0  0  0
    4.4617    2.9044   -2.5400 O   0  0  0  0  0  0  0  0  0  0  0  0
    5.9178    0.4057   -1.9439 C   0  0  1  0  0  0  0  0  0  0  0  0
    7.2701   -0.2842   -1.7147 C   0  0  1  0  0  0  0  0  0  0  0  0
    5.9366    1.1198   -3.3082 C   0  0  1  0  0  0  0  0  0  0  0  0
    8.4190    0.7117   -1.8921 C   0  0  2  0  0  0  0  0  0  0  0  0
    8.3000    1.4489   -3.2342 C   0  0  2  0  0  0  0  0  0  0  0  0
    4.6410    1.9057   -3.5482 C   0  0  0  0  0  0  0  0  0  0  0  0
   -8.6814    0.6908    0.1692 H   0  0  0  0  0  0  0  0  0  0  0  0
   -8.9882   -0.6675    4.0437 H   0  0  0  0  0  0  0  0  0  0  0  0
   -5.8989   -0.8447   -0.0449 H   0  0  0  0  0  0  0  0  0  0  0  0
   -5.5447    3.5721    2.5093 H   0  0  0  0  0  0  0  0  0  0  0  0
   -9.0384    1.3647    2.9034 H   0  0  0  0  0  0  0  0  0  0  0  0
   -8.8223   -1.1241    1.8551 H   0  0  0  0  0  0  0  0  0  0  0  0
   -6.7830    1.8941    0.8998 H   0  0  0  0  0  0  0  0  0  0  0  0
   -6.4348   -1.8494    1.8958 H   0  0  0  0  0  0  0  0  0  0  0  0
   -5.3069   -0.3442    3.3562 H   0  0  0  0  0  0  0  0  0  0  0  0
   -8.2431    3.7611    1.7023 H   0  0  0  0  0  0  0  0  0  0  0  0
   -7.7551    3.3979    3.3770 H   0  0  0  0  0  0  0  0  0  0  0  0
   -4.0383   -2.1494   -1.3364 H   0  0  0  0  0  0  0  0  0  0  0  0
   -1.0077   -1.9076   -1.6009 H   0  0  0  0  0  0  0  0  0  0  0  0
   -1.7583   -3.3462    3.8389 H   0  0  0  0  0  0  0  0  0  0  0  0
   -4.0843   -1.7039    2.0194 H   0  0  0  0  0  0  0  0  0  0  0  0
   -3.0569   -0.2190   -0.4516 H   0  0  0  0  0  0  0  0  0  0  0  0
   -2.4464    0.5177    2.8303 H   0  0  0  0  0  0  0  0  0  0  0  0
   -2.3113   -3.0345    0.5086 H   0  0  0  0  0  0  0  0  0  0  0  0
   -0.3090   -2.2030    1.3244 H   0  0  0  0  0  0  0  0  0  0  0  0
   -2.7933   -1.3556    4.2963 H   0  0  0  0  0  0  0  0  0  0  0  0
   -1.0424   -1.2256    3.9711 H   0  0  0  0  0  0  0  0  0  0  0  0
    3.1688   -1.0527    1.9091 H   0  0  0  0  0  0  0  0  0  0  0  0
    3.5536   -1.9976   -2.5693 H   0  0  0  0  0  0  0  0  0  0  0  0
    2.7405    2.5910   -1.7947 H   0  0  0  0  0  0  0  0  0  0  0  0
    1.2587   -0.1171    1.1151 H   0  0  0  0  0  0  0  0  0  0  0  0
    1.6450   -2.8004    0.2633 H   0  0  0  0  0  0  0  0  0  0  0  0
    1.9329   -0.0234   -1.8813 H   0  0  0  0  0  0  0  0  0  0  0  0
    4.0987   -2.7852   -0.3785 H   0  0  0  0  0  0  0  0  0  0  0  0
    4.9155   -0.6487    0.1391 H   0  0  0  0  0  0  0  0  0  0  0  0
    0.2247    1.5998   -0.8972 H   0  0  0  0  0  0  0  0  0  0  0  0
    1.5214    2.2147    0.1548 H   0  0  0  0  0  0  0  0  0  0  0  0
    8.2778   -1.0675   -0.2484 H   0  0  0  0  0  0  0  0  0  0  0  0
    9.7955   -0.4176   -2.6770 H   0  0  0  0  0  0  0  0  0  0  0  0
    8.7292    1.0944   -5.0741 H   0  0  0  0  0  0  0  0  0  0  0  0
    5.2367    3.4935   -2.6151 H   0  0  0  0  0  0  0  0  0  0  0  0
    5.7619    1.1416   -1.1434 H   0  0  0  0  0  0  0  0  0  0  0  0
    7.3821   -1.1385   -2.3936 H   0  0  0  0  0  0  0  0  0  0  0  0
    6.0231    0.3859   -4.1200 H   0  0  0  0  0  0  0  0  0  0  0  0
    8.3980    1.4327   -1.0662 H   0  0  0  0  0  0  0  0  0  0  0  0
    9.0698    2.2267   -3.2851 H   0  0  0  0  0  0  0  0  0  0  0  0
    3.7673    1.2478   -3.5428 H   0  0  0  0  0  0  0  0  0  0  0  0
    4.6771    2.4214   -4.5136 H   0  0  0  0  0  0  0  0  0  0  0  0
  1  9  1  0
  1 11  1  0
  2  7  1  0
  3  8  1  0
  4 10  1  0
  5 11  1  0
  6 12  1  0
  7  8  1  0
  7  9  1  0
  8 10  1  0
  9 12  1  0
 10 11  1  0
 13 20  1  0
 13 22  1  0
 14 19  1  0
 15 21  1  0
 16 22  1  0
 17 23  1  0
 18 19  1  0
 18 20  1  0
 19 21  1  0
 20 23  1  0
 21 22  1  0
 24 31  1  0
 24 33  1  0
 25 30  1  0
 26 32  1  0
 27 33  1  0
 28 34  1  0
 29 30  1  0
 29 31  1  0
 30 32  1  0
 31 34  1  0
 32 33  1  0
 35 42  1  0
 35 44  1  0
 36 41  1  0
 37 43  1  0
 38 44  1  0
 39 45  1  0
 40 41  1  0
 40 42  1  0
 41 43  1  0
 42 45  1  0
 43 44  1  0
  5 18  1  0
 16 29  1  0
 27 40  1  0
  2 46  1  0
  3 47  1  0
  4 48  1  0
  6 49  1  0
  7 50  1  1
  8 51  1  6
  9 52  1  6
 10 53  1  6
 11 54  1  1
 12 55  1  0
 12 56  1  0
 14 57  1  0
 15 58  1  0
 17 59  1  0
 18 60  1  1
 19 61  1  6
 20 62  1  1
 21 63  1  1
 22 64  1  1
 23 65  1  0
 23 66  1  0
 25 67  1  0
 26 68  1  0
 28 69  1  0
 29 70  1  1
 30 71  1  1
 31 72  1  6
 32 73  1  1
 33 74  1  1
 34 75  1  0
 34 76  1  0
 36 77  1  0
 37 78  1  0
 38 79  1  0
 39 80  1  0
 40 81  1  1
 41 82  1  6
 42 83  1  6
 43 84  1  1
 44 85  1  1
 45 86  1  0
 45 87  1  0
M  END
>  <PUBCHEM_COMPOUND_CID>  (1) 
5793

>  <PUBCHEM_CONFORMER_RMSD>  (1) 
0.6

>  <PUBCHEM_CONFORMER_DIVERSEORDER>  (1) 
1
8
4
3
6
2
7
5

>  <PUBCHEM_MMFF94_PARTIAL_CHARGES>  (1) 
17
1 -0.56
10 0.28
11 0.56
12 0.28
2 -0.68
20 0.4
21 0.4
22 0.4
23 0.4
24 0.4
3 -0.68
4 -0.68
5 -0.68
6 -0.68
7 0.28
8 0.28
9 0.28

>  <PUBCHEM_EFFECTIVE_ROTOR_COUNT>  (1) 
2.2

>  <PUBCHEM_PHARMACOPHORE_FEATURES>  (1) 
12
1 1 acceptor
1 2 acceptor
1 2 donor
1 3 acceptor
1 3 donor
1 4 acceptor
1 4 donor
1 5 acceptor
1 5 donor
1 6 acceptor
1 6 donor
6 1 7 8 9 10 11 rings

>  <PUBCHEM_HEAVY_ATOM_COUNT>  (1) 
12

>  <PUBCHEM_ATOM_DEF_STEREO_COUNT>  (1) 
4

>  <PUBCHEM_ATOM_UDEF_STEREO_COUNT>  (1) 
1

>  <PUBCHEM_BOND_DEF_STEREO_COUNT>  (1) 
0

>  <PUBCHEM_BOND_UDEF_STEREO_COUNT>  (1) 
0

>  <PUBCHEM_ISOTOPIC_ATOM_COUNT>  (1) 
0

>  <PUBCHEM_COMPONENT_COUNT>  (1) 
1

>  <PUBCHEM_CACTVS_TAUTO_COUNT>  (1) 
1

>  <PUBCHEM_CONFORMER_ID>  (1) 
000016A100000001

>  <PUBCHEM_MMFF94_ENERGY>  (1) 
27.5671

>  <PUBCHEM_FEATURE_SELFOVERLAP>  (1) 
60.963

>  <PUBCHEM_SHAPE_FINGERPRINT>  (1) 
12423570 1 11440868573817502106
16945 1 18338792415782022985
18185500 45 18410572903041433514
193761 8 18122905588311858698
21040471 1 18339079405607498497
23235685 24 18410853278337711372
2334 1 17834396004942031816
23402655 69 18267854013893658469
23552423 10 18120089751981225934
23559900 14 18270413797459679636
241688 4 17978794506319527824
2748010 2 18194117417474202524
5084963 1 17769667725561077874
5255222 1 18335976562245387725
528862 383 18261390018417527851
528886 8 18411416206831951673
53812653 166 18412823616180991792
63268167 104 18410859824078808769
66348 1 18411141294496697448

>  <PUBCHEM_SHAPE_MULTIPOLES>  (1) 
211.74
3.59
2.42
0.65
1.75
0.15
0
-0.75
-0.13
-0.7
0.1
-0.03
0.03
-0.1

>  <PUBCHEM_SHAPE_SELFOVERLAP>  (1) 
421.584

>  <PUBCHEM_SHAPE_VOLUME>  (1) 
123.3

>  <PUBCHEM_COORDINATE_TYPE>  (1) 
2
5
10

>  <NOTE>  (1) 
Short representative glucan fragment only, not an entire polysaccharide. RDKit ETKDGv3/MMFF illustrative conformer. Links: alpha 1-4

$$$$
