
     RDKit          3D

155154  0  0  0  0  0  0  0  0999 V2000
   -4.2258    5.2722   -2.3880 O   0  0  0  0  0  0  0  0  0  0  0  0
   -3.1677    5.7430   -1.9962 C   0  0  0  0  0  0  0  0  0  0  0  0
   -2.2679    6.6152   -2.8324 C   0  0  0  0  0  0  0  0  0  0  0  0
   -1.0417    5.8642   -3.3406 C   0  0  0  0  0  0  0  0  0  0  0  0
   -1.3910    4.8099   -4.3953 C   0  0  0  0  0  0  0  0  0  0  0  0
   -0.1271    4.1518   -4.9548 C   0  0  0  0  0  0  0  0  0  0  0  0
   -0.4674    3.0500   -5.9604 C   0  0  0  0  0  0  0  0  0  0  0  0
    0.7545    2.5037   -6.7071 C   0  0  0  0  0  0  0  0  0  0  0  0
    1.8893    1.9692   -5.8277 C   0  0  0  0  0  0  0  0  0  0  0  0
    1.4724    0.7844   -4.9530 C   0  0  0  0  0  0  0  0  0  0  0  0
    2.6389    0.1824   -4.1605 C   0  0  0  0  0  0  0  0  0  0  0  0
    3.1397    1.1073   -3.0463 C   0  0  0  0  0  0  0  0  0  0  0  0
    4.2845    0.5089   -2.2208 C   0  0  0  0  0  0  0  0  0  0  0  0
    3.8449   -0.1848   -0.9276 C   0  0  0  0  0  0  0  0  0  0  0  0
    3.0712   -1.4938   -1.0844 C   0  0  0  0  0  0  0  0  0  0  0  0
    3.8773   -2.6008   -1.7620 C   0  0  0  0  0  0  0  0  0  0  0  0
    3.1043   -3.9107   -1.7841 C   0  0  0  0  0  0  0  0  0  0  0  0
   -2.6300    5.5407   -0.7629 O   0  0  0  0  0  0  0  0  0  0  0  0
   -3.4108    4.7484    0.1523 C   0  0  0  0  0  0  0  0  0  0  0  0
   -2.8917    3.3102    0.2582 C   0  0  0  0  0  0  0  0  0  0  0  0
   -2.8199    2.6004   -1.0968 C   0  0  0  0  0  0  0  0  0  0  0  0
   -2.5824    1.2004   -0.8636 O   0  0  0  0  0  0  0  0  0  0  0  0
   -2.0821    0.5064   -1.9206 C   0  0  0  0  0  0  0  0  0  0  0  0
   -1.8485    0.9728   -3.0261 O   0  0  0  0  0  0  0  0  0  0  0  0
   -1.8637   -0.9377   -1.5439 C   0  0  0  0  0  0  0  0  0  0  0  0
   -0.8422   -1.0576   -0.4171 C   0  0  0  0  0  0  0  0  0  0  0  0
   -0.5436   -2.4990    0.0000 C   0  0  0  0  0  0  0  0  0  0  0  0
   -1.7491   -3.3038    0.4981 C   0  0  0  0  0  0  0  0  0  0  0  0
   -2.4911   -2.6321    1.6568 C   0  0  0  0  0  0  0  0  0  0  0  0
   -3.6288   -3.5137    2.1768 C   0  0  0  0  0  0  0  0  0  0  0  0
   -4.4132   -2.8766    3.3287 C   0  0  0  0  0  0  0  0  0  0  0  0
   -5.1856   -1.6206    2.9119 C   0  0  0  0  0  0  0  0  0  0  0  0
   -6.1023   -1.1294    4.0363 C   0  0  0  0  0  0  0  0  0  0  0  0
   -6.9732    0.0628    3.6284 C   0  0  0  0  0  0  0  0  0  0  0  0
   -6.1735    1.3413    3.3648 C   0  0  0  0  0  0  0  0  0  0  0  0
   -7.1022    2.5186    3.0529 C   0  0  0  0  0  0  0  0  0  0  0  0
   -6.3050    3.7955    2.7789 C   0  0  0  0  0  0  0  0  0  0  0  0
   -7.1759    4.9721    2.3346 C   0  0  0  0  0  0  0  0  0  0  0  0
   -8.1116    5.4759    3.4218 C   0  0  0  0  0  0  0  0  0  0  0  0
   -1.5497    3.3649    0.8102 O   0  0  0  0  0  0  0  0  0  0  0  0
   -1.2362    2.4408    1.7592 C   0  0  0  0  0  0  0  0  0  0  0  0
   -2.0172    1.6405    2.2545 O   0  0  0  0  0  0  0  0  0  0  0  0
    0.2223    2.5653    2.1376 C   0  0  0  0  0  0  0  0  0  0  0  0
    0.8156    1.1992    2.4730 C   0  0  0  0  0  0  0  0  0  0  0  0
    2.3074    1.2831    2.7956 C   0  0  0  0  0  0  0  0  0  0  0  0
    2.8868   -0.1132    3.0370 C   0  0  0  0  0  0  0  0  0  0  0  0
    4.3942   -0.0656    3.2950 C   0  0  0  0  0  0  0  0  0  0  0  0
    5.0069   -1.4457    3.5631 C   0  0  0  0  0  0  0  0  0  0  0  0
    4.9427   -2.3755    2.3496 C   0  0  0  0  0  0  0  0  0  0  0  0
    5.6484   -3.7085    2.6079 C   0  0  0  0  0  0  0  0  0  0  0  0
    5.5573   -4.6103    1.3752 C   0  0  0  0  0  0  0  0  0  0  0  0
    6.2442   -5.9584    1.5947 C   0  0  0  0  0  0  0  0  0  0  0  0
    6.1446   -6.8286    0.3399 C   0  0  0  0  0  0  0  0  0  0  0  0
    6.8677   -8.1632    0.5199 C   0  0  0  0  0  0  0  0  0  0  0  0
    6.7784   -9.0120   -0.7494 C   0  0  0  0  0  0  0  0  0  0  0  0
    7.5268  -10.3344   -0.5902 C   0  0  0  0  0  0  0  0  0  0  0  0
    7.4354  -11.1800   -1.8510 C   0  0  0  0  0  0  0  0  0  0  0  0
   -2.8528    7.0214   -3.6657 H   0  0  0  0  0  0  0  0  0  0  0  0
   -1.9635    7.4742   -2.2223 H   0  0  0  0  0  0  0  0  0  0  0  0
   -0.3476    6.5921   -3.7763 H   0  0  0  0  0  0  0  0  0  0  0  0
   -0.5198    5.3841   -2.5045 H   0  0  0  0  0  0  0  0  0  0  0  0
   -2.0397    4.0420   -3.9584 H   0  0  0  0  0  0  0  0  0  0  0  0
   -1.9517    5.2785   -5.2133 H   0  0  0  0  0  0  0  0  0  0  0  0
    0.4963    4.9143   -5.4375 H   0  0  0  0  0  0  0  0  0  0  0  0
    0.4541    3.7309   -4.1263 H   0  0  0  0  0  0  0  0  0  0  0  0
   -1.1711    3.4428   -6.7056 H   0  0  0  0  0  0  0  0  0  0  0  0
   -0.9883    2.2326   -5.4484 H   0  0  0  0  0  0  0  0  0  0  0  0
    1.1607    3.2998   -7.3450 H   0  0  0  0  0  0  0  0  0  0  0  0
    0.4205    1.7076   -7.3850 H   0  0  0  0  0  0  0  0  0  0  0  0
    2.2863    2.7829   -5.2128 H   0  0  0  0  0  0  0  0  0  0  0  0
    2.7088    1.6539   -6.4852 H   0  0  0  0  0  0  0  0  0  0  0  0
    0.6821    1.0821   -4.2554 H   0  0  0  0  0  0  0  0  0  0  0  0
    1.0516    0.0009   -5.5953 H   0  0  0  0  0  0  0  0  0  0  0  0
    3.4633   -0.0596   -4.8428 H   0  0  0  0  0  0  0  0  0  0  0  0
    2.2977   -0.7652   -3.7340 H   0  0  0  0  0  0  0  0  0  0  0  0
    2.3085    1.4011   -2.3939 H   0  0  0  0  0  0  0  0  0  0  0  0
    3.5173    2.0285   -3.5047 H   0  0  0  0  0  0  0  0  0  0  0  0
    4.9370    1.3402   -1.9203 H   0  0  0  0  0  0  0  0  0  0  0  0
    4.9084   -0.1513   -2.8329 H   0  0  0  0  0  0  0  0  0  0  0  0
    3.2338    0.5120   -0.3409 H   0  0  0  0  0  0  0  0  0  0  0  0
    4.7402   -0.3799   -0.3249 H   0  0  0  0  0  0  0  0  0  0  0  0
    2.7800   -1.8347   -0.0822 H   0  0  0  0  0  0  0  0  0  0  0  0
    2.1375   -1.3195   -1.6267 H   0  0  0  0  0  0  0  0  0  0  0  0
    4.1259   -2.3225   -2.7908 H   0  0  0  0  0  0  0  0  0  0  0  0
    4.8220   -2.7500   -1.2281 H   0  0  0  0  0  0  0  0  0  0  0  0
    3.7030   -4.6951   -2.2572 H   0  0  0  0  0  0  0  0  0  0  0  0
    2.1723   -3.8054   -2.3491 H   0  0  0  0  0  0  0  0  0  0  0  0
    2.8548   -4.2383   -0.7687 H   0  0  0  0  0  0  0  0  0  0  0  0
   -4.4748    4.7585   -0.1104 H   0  0  0  0  0  0  0  0  0  0  0  0
   -3.3183    5.2383    1.1281 H   0  0  0  0  0  0  0  0  0  0  0  0
   -3.5564    2.7573    0.9313 H   0  0  0  0  0  0  0  0  0  0  0  0
   -2.0022    3.0187   -1.6940 H   0  0  0  0  0  0  0  0  0  0  0  0
   -3.7691    2.6906   -1.6339 H   0  0  0  0  0  0  0  0  0  0  0  0
   -2.8353   -1.3652   -1.2742 H   0  0  0  0  0  0  0  0  0  0  0  0
   -1.5050   -1.4724   -2.4310 H   0  0  0  0  0  0  0  0  0  0  0  0
    0.0928   -0.5840   -0.7379 H   0  0  0  0  0  0  0  0  0  0  0  0
   -1.1717   -0.4865    0.4566 H   0  0  0  0  0  0  0  0  0  0  0  0
   -0.0889   -3.0328   -0.8445 H   0  0  0  0  0  0  0  0  0  0  0  0
    0.2151   -2.4755    0.7932 H   0  0  0  0  0  0  0  0  0  0  0  0
   -2.4442   -3.4819   -0.3304 H   0  0  0  0  0  0  0  0  0  0  0  0
   -1.3922   -4.2910    0.8183 H   0  0  0  0  0  0  0  0  0  0  0  0
   -2.8993   -1.6757    1.3169 H   0  0  0  0  0  0  0  0  0  0  0  0
   -1.7896   -2.4182    2.4717 H   0  0  0  0  0  0  0  0  0  0  0  0
   -3.2111   -4.4654    2.5273 H   0  0  0  0  0  0  0  0  0  0  0  0
   -4.3174   -3.7536    1.3569 H   0  0  0  0  0  0  0  0  0  0  0  0
   -3.7308   -2.6343    4.1521 H   0  0  0  0  0  0  0  0  0  0  0  0
   -5.1198   -3.6228    3.7124 H   0  0  0  0  0  0  0  0  0  0  0  0
   -4.4778   -0.8291    2.6466 H   0  0  0  0  0  0  0  0  0  0  0  0
   -5.7860   -1.8373    2.0203 H   0  0  0  0  0  0  0  0  0  0  0  0
   -5.5047   -0.8680    4.9193 H   0  0  0  0  0  0  0  0  0  0  0  0
   -6.7689   -1.9488    4.3360 H   0  0  0  0  0  0  0  0  0  0  0  0
   -7.6932    0.2522    4.4348 H   0  0  0  0  0  0  0  0  0  0  0  0
   -7.5584   -0.1985    2.7375 H   0  0  0  0  0  0  0  0  0  0  0  0
   -5.4898    1.1921    2.5211 H   0  0  0  0  0  0  0  0  0  0  0  0
   -5.5612    1.5795    4.2433 H   0  0  0  0  0  0  0  0  0  0  0  0
   -7.7197    2.2753    2.1805 H   0  0  0  0  0  0  0  0  0  0  0  0
   -7.7802    2.6753    3.8990 H   0  0  0  0  0  0  0  0  0  0  0  0
   -5.7326    4.0747    3.6726 H   0  0  0  0  0  0  0  0  0  0  0  0
   -5.5742    3.5963    1.9867 H   0  0  0  0  0  0  0  0  0  0  0  0
   -7.7618    4.6911    1.4525 H   0  0  0  0  0  0  0  0  0  0  0  0
   -6.5194    5.7955    2.0297 H   0  0  0  0  0  0  0  0  0  0  0  0
   -7.5562    5.7395    4.3274 H   0  0  0  0  0  0  0  0  0  0  0  0
   -8.6409    6.3697    3.0764 H   0  0  0  0  0  0  0  0  0  0  0  0
   -8.8639    4.7257    3.6824 H   0  0  0  0  0  0  0  0  0  0  0  0
    0.2998    3.2501    2.9887 H   0  0  0  0  0  0  0  0  0  0  0  0
    0.7731    2.9996    1.2945 H   0  0  0  0  0  0  0  0  0  0  0  0
    0.6671    0.5228    1.6232 H   0  0  0  0  0  0  0  0  0  0  0  0
    0.2797    0.7577    3.3225 H   0  0  0  0  0  0  0  0  0  0  0  0
    2.8367    1.7612    1.9628 H   0  0  0  0  0  0  0  0  0  0  0  0
    2.4615    1.9090    3.6823 H   0  0  0  0  0  0  0  0  0  0  0  0
    2.3814   -0.5782    3.8916 H   0  0  0  0  0  0  0  0  0  0  0  0
    2.6769   -0.7350    2.1611 H   0  0  0  0  0  0  0  0  0  0  0  0
    4.9027    0.3996    2.4417 H   0  0  0  0  0  0  0  0  0  0  0  0
    4.5881    0.5729    4.1655 H   0  0  0  0  0  0  0  0  0  0  0  0
    4.5025   -1.9137    4.4176 H   0  0  0  0  0  0  0  0  0  0  0  0
    6.0564   -1.3049    3.8508 H   0  0  0  0  0  0  0  0  0  0  0  0
    5.4058   -1.8821    1.4868 H   0  0  0  0  0  0  0  0  0  0  0  0
    3.8984   -2.5776    2.0881 H   0  0  0  0  0  0  0  0  0  0  0  0
    5.1893   -4.2093    3.4687 H   0  0  0  0  0  0  0  0  0  0  0  0
    6.7011   -3.5290    2.8581 H   0  0  0  0  0  0  0  0  0  0  0  0
    6.0200   -4.1036    0.5194 H   0  0  0  0  0  0  0  0  0  0  0  0
    4.5028   -4.7767    1.1219 H   0  0  0  0  0  0  0  0  0  0  0  0
    5.7792   -6.4769    2.4417 H   0  0  0  0  0  0  0  0  0  0  0  0
    7.2986   -5.7968    1.8494 H   0  0  0  0  0  0  0  0  0  0  0  0
    5.0891   -7.0105    0.1029 H   0  0  0  0  0  0  0  0  0  0  0  0
    6.5775   -6.2912   -0.5130 H   0  0  0  0  0  0  0  0  0  0  0  0
    7.9203   -7.9803    0.7674 H   0  0  0  0  0  0  0  0  0  0  0  0
    6.4275   -8.7116    1.3611 H   0  0  0  0  0  0  0  0  0  0  0  0
    7.1981   -8.4540   -1.5952 H   0  0  0  0  0  0  0  0  0  0  0  0
    5.7258   -9.2109   -0.9849 H   0  0  0  0  0  0  0  0  0  0  0  0
    7.1120  -10.8989    0.2530 H   0  0  0  0  0  0  0  0  0  0  0  0
    8.5817  -10.1399   -0.3634 H   0  0  0  0  0  0  0  0  0  0  0  0
    7.9817  -12.1195   -1.7180 H   0  0  0  0  0  0  0  0  0  0  0  0
    7.8678  -10.6537   -2.7077 H   0  0  0  0  0  0  0  0  0  0  0  0
    6.3938  -11.4226   -2.0864 H   0  0  0  0  0  0  0  0  0  0  0  0
  1  2  2  0
  2  3  1  0
  3  4  1  0
  4  5  1  0
  5  6  1  0
  6  7  1  0
  7  8  1  0
  8  9  1  0
  9 10  1  0
 10 11  1  0
 11 12  1  0
 12 13  1  0
 13 14  1  0
 14 15  1  0
 15 16  1  0
 16 17  1  0
  2 18  1  0
 18 19  1  0
 19 20  1  0
 20 21  1  0
 21 22  1  0
 22 23  1  0
 23 24  2  0
 23 25  1  0
 25 26  1  0
 26 27  1  0
 27 28  1  0
 28 29  1  0
 29 30  1  0
 30 31  1  0
 31 32  1  0
 32 33  1  0
 33 34  1  0
 34 35  1  0
 35 36  1  0
 36 37  1  0
 37 38  1  0
 38 39  1  0
 20 40  1  0
 40 41  1  0
 41 42  2  0
 41 43  1  0
 43 44  1  0
 44 45  1  0
 45 46  1  0
 46 47  1  0
 47 48  1  0
 48 49  1  0
 49 50  1  0
 50 51  1  0
 51 52  1  0
 52 53  1  0
 53 54  1  0
 54 55  1  0
 55 56  1  0
 56 57  1  0
  3 58  1  0
  3 59  1  0
  4 60  1  0
  4 61  1  0
  5 62  1  0
  5 63  1  0
  6 64  1  0
  6 65  1  0
  7 66  1  0
  7 67  1  0
  8 68  1  0
  8 69  1  0
  9 70  1  0
  9 71  1  0
 10 72  1  0
 10 73  1  0
 11 74  1  0
 11 75  1  0
 12 76  1  0
 12 77  1  0
 13 78  1  0
 13 79  1  0
 14 80  1  0
 14 81  1  0
 15 82  1  0
 15 83  1  0
 16 84  1  0
 16 85  1  0
 17 86  1  0
 17 87  1  0
 17 88  1  0
 19 89  1  0
 19 90  1  0
 20 91  1  0
 21 92  1  0
 21 93  1  0
 25 94  1  0
 25 95  1  0
 26 96  1  0
 26 97  1  0
 27 98  1  0
 27 99  1  0
 28100  1  0
 28101  1  0
 29102  1  0
 29103  1  0
 30104  1  0
 30105  1  0
 31106  1  0
 31107  1  0
 32108  1  0
 32109  1  0
 33110  1  0
 33111  1  0
 34112  1  0
 34113  1  0
 35114  1  0
 35115  1  0
 36116  1  0
 36117  1  0
 37118  1  0
 37119  1  0
 38120  1  0
 38121  1  0
 39122  1  0
 39123  1  0
 39124  1  0
 43125  1  0
 43126  1  0
 44127  1  0
 44128  1  0
 45129  1  0
 45130  1  0
 46131  1  0
 46132  1  0
 47133  1  0
 47134  1  0
 48135  1  0
 48136  1  0
 49137  1  0
 49138  1  0
 50139  1  0
 50140  1  0
 51141  1  0
 51142  1  0
 52143  1  0
 52144  1  0
 53145  1  0
 53146  1  0
 54147  1  0
 54148  1  0
 55149  1  0
 55150  1  0
 56151  1  0
 56152  1  0
 57153  1  0
 57154  1  0
 57155  1  0
M  END
$$$$
